* NGSPICE file created from spm.ext - technology: sky130A

* Black-box entry subcircuit for sky130_fd_sc_hd__decap_6 abstract view
.subckt sky130_fd_sc_hd__decap_6 VGND VNB VPB VPWR
.ends

* Black-box entry subcircuit for sky130_fd_sc_hd__tapvpwrvgnd_1 abstract view
.subckt sky130_fd_sc_hd__tapvpwrvgnd_1 VGND VPWR
.ends

* Black-box entry subcircuit for sky130_fd_sc_hd__xnor2_2 abstract view
.subckt sky130_fd_sc_hd__xnor2_2 A B VGND VNB VPB VPWR Y
.ends

* Black-box entry subcircuit for sky130_fd_sc_hd__dfrtp_2 abstract view
.subckt sky130_fd_sc_hd__dfrtp_2 CLK D RESET_B VGND VNB VPB VPWR Q
.ends

* Black-box entry subcircuit for sky130_fd_sc_hd__inv_2 abstract view
.subckt sky130_fd_sc_hd__inv_2 A VGND VNB VPB VPWR Y
.ends

* Black-box entry subcircuit for sky130_fd_sc_hd__decap_3 abstract view
.subckt sky130_fd_sc_hd__decap_3 VGND VNB VPB VPWR
.ends

* Black-box entry subcircuit for sky130_fd_sc_hd__decap_4 abstract view
.subckt sky130_fd_sc_hd__decap_4 VGND VNB VPB VPWR
.ends

* Black-box entry subcircuit for sky130_ef_sc_hd__decap_12 abstract view
.subckt sky130_ef_sc_hd__decap_12 VPWR VGND VPB VNB
.ends

* Black-box entry subcircuit for sky130_fd_sc_hd__nand2_2 abstract view
.subckt sky130_fd_sc_hd__nand2_2 A B VGND VNB VPB VPWR Y
.ends

* Black-box entry subcircuit for sky130_fd_sc_hd__xor2_2 abstract view
.subckt sky130_fd_sc_hd__xor2_2 A B VGND VNB VPB VPWR X
.ends

* Black-box entry subcircuit for sky130_fd_sc_hd__and2_2 abstract view
.subckt sky130_fd_sc_hd__and2_2 A B VGND VNB VPB VPWR X
.ends

* Black-box entry subcircuit for sky130_fd_sc_hd__fill_2 abstract view
.subckt sky130_fd_sc_hd__fill_2 VGND VNB VPB VPWR
.ends

* Black-box entry subcircuit for sky130_fd_sc_hd__clkbuf_16 abstract view
.subckt sky130_fd_sc_hd__clkbuf_16 A VGND VNB VPB VPWR X
.ends

* Black-box entry subcircuit for sky130_fd_sc_hd__a31o_2 abstract view
.subckt sky130_fd_sc_hd__a31o_2 A1 A2 A3 B1 VGND VNB VPB VPWR X
.ends

* Black-box entry subcircuit for sky130_fd_sc_hd__decap_8 abstract view
.subckt sky130_fd_sc_hd__decap_8 VGND VNB VPB VPWR
.ends

* Black-box entry subcircuit for sky130_fd_sc_hd__fill_1 abstract view
.subckt sky130_fd_sc_hd__fill_1 VGND VNB VPB VPWR
.ends

* Black-box entry subcircuit for sky130_fd_sc_hd__clkbuf_4 abstract view
.subckt sky130_fd_sc_hd__clkbuf_4 A VGND VNB VPB VPWR X
.ends

* Black-box entry subcircuit for sky130_fd_sc_hd__clkbuf_8 abstract view
.subckt sky130_fd_sc_hd__clkbuf_8 A VGND VNB VPB VPWR X
.ends

* Black-box entry subcircuit for sky130_fd_sc_hd__nand3_2 abstract view
.subckt sky130_fd_sc_hd__nand3_2 A B C VGND VNB VPB VPWR Y
.ends

* Black-box entry subcircuit for sky130_fd_sc_hd__a21o_2 abstract view
.subckt sky130_fd_sc_hd__a21o_2 A1 A2 B1 VGND VNB VPB VPWR X
.ends

.subckt spm VGND VPWR clk p rst x[0] x[10] x[11] x[12] x[13] x[14] x[15] x[16] x[17]
+ x[18] x[19] x[1] x[20] x[21] x[22] x[23] x[24] x[25] x[26] x[27] x[28] x[29] x[2]
+ x[30] x[31] x[3] x[4] x[5] x[6] x[7] x[8] x[9] y
XFILLER_0_27_93 VGND VGND VPWR VPWR sky130_fd_sc_hd__decap_6
XTAP_TAPCELL_ROW_24_139 VGND VPWR sky130_fd_sc_hd__tapvpwrvgnd_1
X_294_ _156_ _157_ VGND VGND VPWR VPWR genblk1\[19\].csa.hsum2 sky130_fd_sc_hd__xnor2_2
X_432_ clknet_3_3__leaf_clk genblk1\[8\].csa.hsum2 _052_ VGND VGND VPWR VPWR genblk1\[7\].csa.y
+ sky130_fd_sc_hd__dfrtp_2
X_363_ rst VGND VGND VPWR VPWR _047_ sky130_fd_sc_hd__inv_2
XPHY_EDGE_ROW_19_Left_50 VGND VGND VPWR VPWR sky130_fd_sc_hd__decap_3
XFILLER_0_1_163 VGND VGND VPWR VPWR sky130_fd_sc_hd__decap_4
XFILLER_0_13_40 VPWR VGND VPWR VGND sky130_ef_sc_hd__decap_12
X_346_ y x[30] VGND VGND VPWR VPWR _189_ sky130_fd_sc_hd__nand2_2
X_415_ clknet_3_0__leaf_clk _032_ _035_ VGND VGND VPWR VPWR tcmp.z sky130_fd_sc_hd__dfrtp_2
X_277_ genblk1\[16\].csa.sc genblk1\[16\].csa.y VGND VGND VPWR VPWR _148_ sky130_fd_sc_hd__xor2_2
X_200_ genblk1\[1\].csa.sc genblk1\[1\].csa.y VGND VGND VPWR VPWR _101_ sky130_fd_sc_hd__and2_2
XPHY_EDGE_ROW_4_Left_35 VGND VGND VPWR VPWR sky130_fd_sc_hd__decap_3
XFILLER_0_28_136 VGND VGND VPWR VPWR sky130_fd_sc_hd__decap_4
XFILLER_0_0_29 VPWR VGND VPWR VGND sky130_ef_sc_hd__decap_12
X_329_ _177_ _178_ VGND VGND VPWR VPWR genblk1\[26\].csa.hsum2 sky130_fd_sc_hd__xnor2_2
XFILLER_0_10_85 VPWR VGND VPWR VGND sky130_ef_sc_hd__decap_12
XFILLER_0_19_169 VPWR VGND VPWR VGND sky130_ef_sc_hd__decap_12
XFILLER_0_18_180 VGND VGND VPWR VPWR sky130_fd_sc_hd__fill_2
XFILLER_0_30_153 VPWR VGND VPWR VGND sky130_ef_sc_hd__decap_12
XTAP_TAPCELL_ROW_27_148 VGND VPWR sky130_fd_sc_hd__tapvpwrvgnd_1
XFILLER_0_7_71 VGND VGND VPWR VPWR sky130_fd_sc_hd__decap_4
XFILLER_0_7_82 VPWR VGND VPWR VGND sky130_ef_sc_hd__decap_12
Xclkbuf_3_6__f_clk clknet_0_clk VGND VGND VPWR VPWR clknet_3_6__leaf_clk sky130_fd_sc_hd__clkbuf_16
X_293_ y x[19] _157_ _155_ VGND VGND VPWR VPWR _010_ sky130_fd_sc_hd__a31o_2
X_431_ clknet_3_6__leaf_clk _029_ _051_ VGND VGND VPWR VPWR genblk1\[8\].csa.sc sky130_fd_sc_hd__dfrtp_2
X_362_ rst VGND VGND VPWR VPWR _046_ sky130_fd_sc_hd__inv_2
XFILLER_0_13_63 VGND VGND VPWR VPWR sky130_fd_sc_hd__decap_8
XFILLER_0_13_52 VGND VGND VPWR VPWR sky130_fd_sc_hd__decap_4
X_414_ clknet_3_5__leaf_clk csa0.hsum2 _034_ VGND VGND VPWR VPWR p sky130_fd_sc_hd__dfrtp_2
X_276_ y x[16] VGND VGND VPWR VPWR _147_ sky130_fd_sc_hd__nand2_2
XPHY_EDGE_ROW_20_Left_51 VGND VGND VPWR VPWR sky130_fd_sc_hd__decap_3
X_345_ genblk1\[30\].csa.sc genblk1\[30\].csa.y VGND VGND VPWR VPWR _188_ sky130_fd_sc_hd__and2_2
XTAP_TAPCELL_ROW_8_89 VGND VPWR sky130_fd_sc_hd__tapvpwrvgnd_1
XPHY_EDGE_ROW_21_Right_21 VGND VGND VPWR VPWR sky130_fd_sc_hd__decap_3
XPHY_EDGE_ROW_12_Right_12 VGND VGND VPWR VPWR sky130_fd_sc_hd__decap_3
XPHY_EDGE_ROW_30_Right_30 VGND VGND VPWR VPWR sky130_fd_sc_hd__decap_3
X_259_ _135_ _136_ VGND VGND VPWR VPWR genblk1\[12\].csa.hsum2 sky130_fd_sc_hd__xnor2_2
X_328_ y x[26] _178_ _176_ VGND VGND VPWR VPWR _018_ sky130_fd_sc_hd__a31o_2
XFILLER_0_27_181 VGND VGND VPWR VPWR sky130_fd_sc_hd__fill_1
XFILLER_0_10_97 VPWR VGND VPWR VGND sky130_ef_sc_hd__decap_12
XFILLER_0_30_165 VGND VGND VPWR VPWR sky130_fd_sc_hd__decap_3
XFILLER_0_27_3 VPWR VGND VPWR VGND sky130_ef_sc_hd__decap_12
XPHY_EDGE_ROW_6_Right_6 VGND VGND VPWR VPWR sky130_fd_sc_hd__decap_3
XFILLER_0_8_115 VGND VGND VPWR VPWR sky130_fd_sc_hd__decap_6
XFILLER_0_12_132 VGND VGND VPWR VPWR sky130_fd_sc_hd__decap_8
XFILLER_0_7_181 VGND VGND VPWR VPWR sky130_fd_sc_hd__fill_1
XFILLER_0_27_40 VGND VGND VPWR VPWR sky130_fd_sc_hd__decap_3
X_292_ genblk1\[19\].csa.sc genblk1\[19\].csa.y VGND VGND VPWR VPWR _157_ sky130_fd_sc_hd__xor2_2
X_361_ rst VGND VGND VPWR VPWR _045_ sky130_fd_sc_hd__inv_2
XFILLER_0_4_162 VPWR VGND VPWR VGND sky130_ef_sc_hd__decap_12
XFILLER_0_7_94 VGND VGND VPWR VPWR sky130_fd_sc_hd__decap_4
X_430_ clknet_3_3__leaf_clk genblk1\[7\].csa.hsum2 _050_ VGND VGND VPWR VPWR genblk1\[6\].csa.y
+ sky130_fd_sc_hd__dfrtp_2
XFILLER_0_3_19 VPWR VGND VPWR VGND sky130_ef_sc_hd__decap_12
X_413_ clknet_3_5__leaf_clk _000_ _033_ VGND VGND VPWR VPWR csa0.sc sky130_fd_sc_hd__dfrtp_2
X_275_ genblk1\[16\].csa.sc genblk1\[16\].csa.y VGND VGND VPWR VPWR _146_ sky130_fd_sc_hd__and2_2
X_344_ _186_ _187_ VGND VGND VPWR VPWR genblk1\[29\].csa.hsum2 sky130_fd_sc_hd__xnor2_2
XTAP_TAPCELL_ROW_11_100 VGND VPWR sky130_fd_sc_hd__tapvpwrvgnd_1
XFILLER_0_24_85 VPWR VGND VPWR VGND sky130_ef_sc_hd__decap_12
XFILLER_0_24_74 VGND VGND VPWR VPWR sky130_fd_sc_hd__decap_8
XFILLER_0_4_51 VGND VGND VPWR VPWR sky130_fd_sc_hd__decap_3
X_258_ y x[12] _136_ _134_ VGND VGND VPWR VPWR _003_ sky130_fd_sc_hd__a31o_2
X_327_ genblk1\[26\].csa.sc genblk1\[26\].csa.y VGND VGND VPWR VPWR _178_ sky130_fd_sc_hd__xor2_2
XFILLER_0_18_160 VPWR VGND VPWR VGND sky130_ef_sc_hd__decap_12
XFILLER_0_21_53 VGND VGND VPWR VPWR sky130_fd_sc_hd__decap_3
XFILLER_0_21_133 VPWR VGND VPWR VGND sky130_ef_sc_hd__decap_12
XFILLER_0_8_105 VGND VGND VPWR VPWR sky130_fd_sc_hd__decap_3
XFILLER_0_7_160 VGND VGND VPWR VPWR sky130_fd_sc_hd__decap_8
XFILLER_0_9_3 VGND VGND VPWR VPWR sky130_fd_sc_hd__decap_6
X_291_ y x[19] VGND VGND VPWR VPWR _156_ sky130_fd_sc_hd__nand2_2
X_360_ rst VGND VGND VPWR VPWR _044_ sky130_fd_sc_hd__inv_2
XFILLER_0_4_174 VGND VGND VPWR VPWR sky130_fd_sc_hd__decap_8
XFILLER_0_13_98 VGND VGND VPWR VPWR sky130_fd_sc_hd__fill_1
X_274_ _144_ _145_ VGND VGND VPWR VPWR genblk1\[15\].csa.hsum2 sky130_fd_sc_hd__xnor2_2
XFILLER_0_0_7 VGND VGND VPWR VPWR sky130_fd_sc_hd__fill_1
X_412_ rst VGND VGND VPWR VPWR _096_ sky130_fd_sc_hd__inv_2
X_343_ y x[29] _187_ _185_ VGND VGND VPWR VPWR _021_ sky130_fd_sc_hd__a31o_2
XFILLER_0_24_97 VGND VGND VPWR VPWR sky130_fd_sc_hd__fill_1
XFILLER_0_4_85 VGND VGND VPWR VPWR sky130_fd_sc_hd__decap_3
X_257_ genblk1\[12\].csa.sc genblk1\[12\].csa.y VGND VGND VPWR VPWR _136_ sky130_fd_sc_hd__xor2_2
X_326_ y x[26] VGND VGND VPWR VPWR _177_ sky130_fd_sc_hd__nand2_2
XPHY_EDGE_ROW_8_Left_39 VGND VGND VPWR VPWR sky130_fd_sc_hd__decap_3
XFILLER_0_21_32 VGND VGND VPWR VPWR sky130_fd_sc_hd__decap_4
XFILLER_0_18_172 VGND VGND VPWR VPWR sky130_fd_sc_hd__decap_8
X_309_ _165_ _166_ VGND VGND VPWR VPWR genblk1\[22\].csa.hsum2 sky130_fd_sc_hd__xnor2_2
XFILLER_0_21_145 VGND VGND VPWR VPWR sky130_fd_sc_hd__decap_4
XFILLER_0_21_101 VGND VGND VPWR VPWR sky130_fd_sc_hd__decap_8
XFILLER_0_7_30 VGND VGND VPWR VPWR sky130_fd_sc_hd__fill_1
XFILLER_0_7_52 VGND VGND VPWR VPWR sky130_fd_sc_hd__decap_4
X_290_ genblk1\[19\].csa.sc genblk1\[19\].csa.y VGND VGND VPWR VPWR _155_ sky130_fd_sc_hd__and2_2
XFILLER_0_1_167 VGND VGND VPWR VPWR sky130_fd_sc_hd__fill_1
XFILLER_0_1_134 VGND VGND VPWR VPWR sky130_fd_sc_hd__fill_2
X_273_ y x[15] _145_ _143_ VGND VGND VPWR VPWR _006_ sky130_fd_sc_hd__a31o_2
X_411_ rst VGND VGND VPWR VPWR _095_ sky130_fd_sc_hd__inv_2
X_342_ genblk1\[29\].csa.sc genblk1\[29\].csa.y VGND VGND VPWR VPWR _187_ sky130_fd_sc_hd__xor2_2
XFILLER_0_4_97 VGND VGND VPWR VPWR sky130_fd_sc_hd__decap_4
X_256_ y x[12] VGND VGND VPWR VPWR _135_ sky130_fd_sc_hd__nand2_2
XPHY_EDGE_ROW_24_Left_55 VGND VGND VPWR VPWR sky130_fd_sc_hd__decap_3
X_325_ genblk1\[26\].csa.sc genblk1\[26\].csa.y VGND VGND VPWR VPWR _176_ sky130_fd_sc_hd__and2_2
Xclkload0 clknet_3_0__leaf_clk VGND VGND VPWR VPWR clkload0/X sky130_fd_sc_hd__clkbuf_4
XFILLER_0_24_132 VGND VGND VPWR VPWR sky130_fd_sc_hd__decap_8
XFILLER_0_21_11 VGND VGND VPWR VPWR sky130_fd_sc_hd__fill_2
X_308_ y x[22] _166_ _164_ VGND VGND VPWR VPWR _014_ sky130_fd_sc_hd__a31o_2
X_239_ _123_ _124_ VGND VGND VPWR VPWR genblk1\[8\].csa.hsum2 sky130_fd_sc_hd__xnor2_2
XFILLER_0_30_113 VPWR VGND VPWR VGND sky130_ef_sc_hd__decap_12
XFILLER_0_15_154 VGND VGND VPWR VPWR sky130_fd_sc_hd__fill_1
XFILLER_0_25_3 VGND VGND VPWR VPWR sky130_fd_sc_hd__decap_6
XPHY_EDGE_ROW_11_Left_42 VGND VGND VPWR VPWR sky130_fd_sc_hd__decap_3
XFILLER_0_12_179 VGND VGND VPWR VPWR sky130_fd_sc_hd__decap_3
XPHY_EDGE_ROW_28_Right_28 VGND VGND VPWR VPWR sky130_fd_sc_hd__decap_3
XPHY_EDGE_ROW_19_Right_19 VGND VGND VPWR VPWR sky130_fd_sc_hd__decap_3
XTAP_TAPCELL_ROW_18_119 VGND VPWR sky130_fd_sc_hd__tapvpwrvgnd_1
Xclkbuf_3_1__f_clk clknet_0_clk VGND VGND VPWR VPWR clknet_3_1__leaf_clk sky130_fd_sc_hd__clkbuf_16
XFILLER_0_27_32 VGND VGND VPWR VPWR sky130_fd_sc_hd__decap_8
X_272_ genblk1\[15\].csa.sc genblk1\[15\].csa.y VGND VGND VPWR VPWR _145_ sky130_fd_sc_hd__xor2_2
XTAP_TAPCELL_ROW_20_125 VGND VPWR sky130_fd_sc_hd__tapvpwrvgnd_1
X_341_ y x[29] VGND VGND VPWR VPWR _186_ sky130_fd_sc_hd__nand2_2
X_410_ rst VGND VGND VPWR VPWR _094_ sky130_fd_sc_hd__inv_2
X_255_ genblk1\[12\].csa.sc genblk1\[12\].csa.y VGND VGND VPWR VPWR _134_ sky130_fd_sc_hd__and2_2
XFILLER_0_19_11 VGND VGND VPWR VPWR sky130_fd_sc_hd__decap_3
XFILLER_0_10_24 VGND VGND VPWR VPWR sky130_fd_sc_hd__decap_4
XFILLER_0_10_57 VPWR VGND VPWR VGND sky130_ef_sc_hd__decap_12
X_324_ _174_ _175_ VGND VGND VPWR VPWR genblk1\[25\].csa.hsum2 sky130_fd_sc_hd__xnor2_2
XTAP_TAPCELL_ROW_9_92 VGND VPWR sky130_fd_sc_hd__tapvpwrvgnd_1
XFILLER_0_18_141 VGND VGND VPWR VPWR sky130_fd_sc_hd__decap_6
XFILLER_0_18_130 VGND VGND VPWR VPWR sky130_fd_sc_hd__decap_4
Xclkload1 clknet_3_1__leaf_clk VGND VGND VPWR VPWR clkload1/X sky130_fd_sc_hd__clkbuf_8
XFILLER_0_24_144 VPWR VGND VPWR VGND sky130_ef_sc_hd__decap_12
XFILLER_0_21_89 VPWR VGND VPWR VGND sky130_ef_sc_hd__decap_12
X_238_ y x[8] _124_ _122_ VGND VGND VPWR VPWR _029_ sky130_fd_sc_hd__a31o_2
X_307_ genblk1\[22\].csa.sc genblk1\[22\].csa.y VGND VGND VPWR VPWR _166_ sky130_fd_sc_hd__xor2_2
XFILLER_0_1_55 VGND VGND VPWR VPWR sky130_fd_sc_hd__fill_1
XFILLER_0_30_169 VPWR VGND VPWR VGND sky130_ef_sc_hd__decap_12
XFILLER_0_30_125 VPWR VGND VPWR VGND sky130_ef_sc_hd__decap_12
XFILLER_0_15_166 VGND VGND VPWR VPWR sky130_fd_sc_hd__fill_2
XFILLER_0_15_111 VGND VGND VPWR VPWR sky130_fd_sc_hd__fill_1
XFILLER_0_21_169 VPWR VGND VPWR VGND sky130_ef_sc_hd__decap_12
XFILLER_0_20_180 VGND VGND VPWR VPWR sky130_fd_sc_hd__fill_2
XFILLER_0_27_99 VGND VGND VPWR VPWR sky130_fd_sc_hd__fill_1
XFILLER_0_7_65 VGND VGND VPWR VPWR sky130_fd_sc_hd__decap_3
XFILLER_0_7_98 VGND VGND VPWR VPWR sky130_fd_sc_hd__fill_1
XTAP_TAPCELL_ROW_23_134 VGND VPWR sky130_fd_sc_hd__tapvpwrvgnd_1
XFILLER_0_7_3 VGND VGND VPWR VPWR sky130_fd_sc_hd__fill_2
XFILLER_0_1_169 VPWR VGND VPWR VGND sky130_ef_sc_hd__decap_12
XTAP_TAPCELL_ROW_20_126 VGND VPWR sky130_fd_sc_hd__tapvpwrvgnd_1
X_271_ y x[15] VGND VGND VPWR VPWR _144_ sky130_fd_sc_hd__nand2_2
X_340_ genblk1\[29\].csa.sc genblk1\[29\].csa.y VGND VGND VPWR VPWR _185_ sky130_fd_sc_hd__and2_2
X_469_ clknet_3_2__leaf_clk _019_ _089_ VGND VGND VPWR VPWR genblk1\[27\].csa.sc sky130_fd_sc_hd__dfrtp_2
X_254_ _132_ _133_ VGND VGND VPWR VPWR genblk1\[11\].csa.hsum2 sky130_fd_sc_hd__xnor2_2
X_323_ y x[25] _175_ _173_ VGND VGND VPWR VPWR _017_ sky130_fd_sc_hd__a31o_2
XTAP_TAPCELL_ROW_0_62 VGND VPWR sky130_fd_sc_hd__tapvpwrvgnd_1
XTAP_TAPCELL_ROW_9_93 VGND VPWR sky130_fd_sc_hd__tapvpwrvgnd_1
XFILLER_0_10_69 VGND VGND VPWR VPWR sky130_fd_sc_hd__fill_2
Xclkload2 clknet_3_2__leaf_clk VGND VGND VPWR VPWR clkload2/X sky130_fd_sc_hd__clkbuf_4
XFILLER_0_24_156 VPWR VGND VPWR VGND sky130_ef_sc_hd__decap_12
XFILLER_0_24_101 VGND VGND VPWR VPWR sky130_fd_sc_hd__decap_8
XFILLER_0_21_57 VGND VGND VPWR VPWR sky130_fd_sc_hd__fill_1
X_237_ genblk1\[8\].csa.sc genblk1\[8\].csa.y VGND VGND VPWR VPWR _124_ sky130_fd_sc_hd__xor2_2
X_306_ y x[22] VGND VGND VPWR VPWR _165_ sky130_fd_sc_hd__nand2_2
XFILLER_0_30_137 VGND VGND VPWR VPWR sky130_fd_sc_hd__decap_3
XFILLER_0_30_104 VGND VGND VPWR VPWR sky130_fd_sc_hd__decap_8
XFILLER_0_16_24 VGND VGND VPWR VPWR sky130_fd_sc_hd__decap_4
XTAP_TAPCELL_ROW_6_83 VGND VPWR sky130_fd_sc_hd__tapvpwrvgnd_1
XTAP_TAPCELL_ROW_26_143 VGND VPWR sky130_fd_sc_hd__tapvpwrvgnd_1
XPHY_EDGE_ROW_1_Right_1 VGND VGND VPWR VPWR sky130_fd_sc_hd__decap_3
XFILLER_0_27_23 VGND VGND VPWR VPWR sky130_fd_sc_hd__fill_2
XFILLER_0_4_101 VGND VGND VPWR VPWR sky130_fd_sc_hd__fill_1
XFILLER_0_4_112 VGND VGND VPWR VPWR sky130_fd_sc_hd__fill_1
XFILLER_0_30_3 VGND VGND VPWR VPWR sky130_fd_sc_hd__decap_6
XTAP_TAPCELL_ROW_23_135 VGND VPWR sky130_fd_sc_hd__tapvpwrvgnd_1
XTAP_TAPCELL_ROW_20_127 VGND VPWR sky130_fd_sc_hd__tapvpwrvgnd_1
XFILLER_0_0_181 VGND VGND VPWR VPWR sky130_fd_sc_hd__fill_1
X_270_ genblk1\[15\].csa.sc genblk1\[15\].csa.y VGND VGND VPWR VPWR _143_ sky130_fd_sc_hd__and2_2
XFILLER_0_4_78 VGND VGND VPWR VPWR sky130_fd_sc_hd__decap_6
X_399_ rst VGND VGND VPWR VPWR _083_ sky130_fd_sc_hd__inv_2
X_468_ clknet_3_3__leaf_clk genblk1\[26\].csa.hsum2 _088_ VGND VGND VPWR VPWR genblk1\[25\].csa.y
+ sky130_fd_sc_hd__dfrtp_2
X_322_ genblk1\[25\].csa.sc genblk1\[25\].csa.y VGND VGND VPWR VPWR _175_ sky130_fd_sc_hd__xor2_2
X_253_ y x[11] _133_ _131_ VGND VGND VPWR VPWR _002_ sky130_fd_sc_hd__a31o_2
Xclkbuf_3_7__f_clk clknet_0_clk VGND VGND VPWR VPWR clknet_3_7__leaf_clk sky130_fd_sc_hd__clkbuf_16
XTAP_TAPCELL_ROW_0_63 VGND VPWR sky130_fd_sc_hd__tapvpwrvgnd_1
XTAP_TAPCELL_ROW_9_94 VGND VPWR sky130_fd_sc_hd__tapvpwrvgnd_1
Xclkload3 clknet_3_4__leaf_clk VGND VGND VPWR VPWR clkload3/X sky130_fd_sc_hd__clkbuf_8
XPHY_EDGE_ROW_28_Left_59 VGND VGND VPWR VPWR sky130_fd_sc_hd__decap_3
XFILLER_0_24_168 VPWR VGND VPWR VGND sky130_ef_sc_hd__decap_12
X_305_ genblk1\[22\].csa.sc genblk1\[22\].csa.y VGND VGND VPWR VPWR _164_ sky130_fd_sc_hd__and2_2
X_236_ y x[8] VGND VGND VPWR VPWR _123_ sky130_fd_sc_hd__nand2_2
XFILLER_0_15_113 VGND VGND VPWR VPWR sky130_fd_sc_hd__decap_3
XFILLER_0_21_116 VPWR VGND VPWR VGND sky130_ef_sc_hd__decap_12
XTAP_TAPCELL_ROW_29_152 VGND VPWR sky130_fd_sc_hd__tapvpwrvgnd_1
XFILLER_0_20_160 VPWR VGND VPWR VGND sky130_ef_sc_hd__decap_12
X_219_ _111_ _112_ VGND VGND VPWR VPWR genblk1\[4\].csa.hsum2 sky130_fd_sc_hd__xnor2_2
XTAP_TAPCELL_ROW_6_84 VGND VPWR sky130_fd_sc_hd__tapvpwrvgnd_1
XTAP_TAPCELL_ROW_26_144 VGND VPWR sky130_fd_sc_hd__tapvpwrvgnd_1
XFILLER_0_27_57 VGND VGND VPWR VPWR sky130_fd_sc_hd__decap_4
Xclkbuf_0_clk clk VGND VGND VPWR VPWR clknet_0_clk sky130_fd_sc_hd__clkbuf_16
XPHY_EDGE_ROW_24_Right_24 VGND VGND VPWR VPWR sky130_fd_sc_hd__decap_3
XTAP_TAPCELL_ROW_23_136 VGND VPWR sky130_fd_sc_hd__tapvpwrvgnd_1
XFILLER_0_23_3 VGND VGND VPWR VPWR sky130_fd_sc_hd__fill_1
XPHY_EDGE_ROW_15_Right_15 VGND VGND VPWR VPWR sky130_fd_sc_hd__decap_3
XPHY_EDGE_ROW_15_Left_46 VGND VGND VPWR VPWR sky130_fd_sc_hd__decap_3
XTAP_TAPCELL_ROW_3_74 VGND VPWR sky130_fd_sc_hd__tapvpwrvgnd_1
XFILLER_0_0_160 VGND VGND VPWR VPWR sky130_fd_sc_hd__decap_8
XFILLER_0_24_69 VGND VGND VPWR VPWR sky130_fd_sc_hd__fill_2
X_398_ rst VGND VGND VPWR VPWR _082_ sky130_fd_sc_hd__inv_2
X_467_ clknet_3_3__leaf_clk _018_ _087_ VGND VGND VPWR VPWR genblk1\[26\].csa.sc sky130_fd_sc_hd__dfrtp_2
X_252_ genblk1\[11\].csa.sc genblk1\[11\].csa.y VGND VGND VPWR VPWR _133_ sky130_fd_sc_hd__xor2_2
X_321_ y x[25] VGND VGND VPWR VPWR _174_ sky130_fd_sc_hd__nand2_2
XTAP_TAPCELL_ROW_0_64 VGND VPWR sky130_fd_sc_hd__tapvpwrvgnd_1
XFILLER_0_27_166 VGND VGND VPWR VPWR sky130_fd_sc_hd__fill_2
Xclkload4 clknet_3_6__leaf_clk VGND VGND VPWR VPWR clkload4/X sky130_fd_sc_hd__clkbuf_4
X_235_ genblk1\[8\].csa.sc genblk1\[8\].csa.y VGND VGND VPWR VPWR _122_ sky130_fd_sc_hd__and2_2
X_304_ _162_ _163_ VGND VGND VPWR VPWR genblk1\[21\].csa.hsum2 sky130_fd_sc_hd__xnor2_2
XPHY_EDGE_ROW_3_Left_34 VGND VGND VPWR VPWR sky130_fd_sc_hd__decap_3
XFILLER_0_15_158 VGND VGND VPWR VPWR sky130_fd_sc_hd__decap_8
XFILLER_0_15_136 VPWR VGND VPWR VGND sky130_ef_sc_hd__decap_12
XFILLER_0_15_103 VGND VGND VPWR VPWR sky130_fd_sc_hd__fill_1
XFILLER_0_11_70 VGND VGND VPWR VPWR sky130_fd_sc_hd__decap_3
XFILLER_0_21_128 VGND VGND VPWR VPWR sky130_fd_sc_hd__fill_2
XTAP_TAPCELL_ROW_10_95 VGND VPWR sky130_fd_sc_hd__tapvpwrvgnd_1
XTAP_TAPCELL_ROW_29_153 VGND VPWR sky130_fd_sc_hd__tapvpwrvgnd_1
XFILLER_0_20_172 VGND VGND VPWR VPWR sky130_fd_sc_hd__decap_8
X_218_ y x[4] _112_ _110_ VGND VGND VPWR VPWR _025_ sky130_fd_sc_hd__a31o_2
XTAP_TAPCELL_ROW_6_85 VGND VPWR sky130_fd_sc_hd__tapvpwrvgnd_1
XFILLER_0_12_106 VGND VGND VPWR VPWR sky130_fd_sc_hd__fill_2
XFILLER_0_9_9 VGND VGND VPWR VPWR sky130_fd_sc_hd__fill_1
XTAP_TAPCELL_ROW_26_145 VGND VPWR sky130_fd_sc_hd__tapvpwrvgnd_1
XFILLER_0_7_57 VGND VGND VPWR VPWR sky130_fd_sc_hd__decap_8
XTAP_TAPCELL_ROW_3_75 VGND VPWR sky130_fd_sc_hd__tapvpwrvgnd_1
XFILLER_0_5_3 VGND VGND VPWR VPWR sky130_fd_sc_hd__fill_1
X_397_ rst VGND VGND VPWR VPWR _081_ sky130_fd_sc_hd__inv_2
X_466_ clknet_3_3__leaf_clk genblk1\[25\].csa.hsum2 _086_ VGND VGND VPWR VPWR genblk1\[24\].csa.y
+ sky130_fd_sc_hd__dfrtp_2
X_251_ y x[11] VGND VGND VPWR VPWR _132_ sky130_fd_sc_hd__nand2_2
X_320_ genblk1\[25\].csa.sc genblk1\[25\].csa.y VGND VGND VPWR VPWR _173_ sky130_fd_sc_hd__and2_2
XTAP_TAPCELL_ROW_0_65 VGND VPWR sky130_fd_sc_hd__tapvpwrvgnd_1
XFILLER_0_27_134 VPWR VGND VPWR VGND sky130_ef_sc_hd__decap_12
X_449_ clknet_3_5__leaf_clk _008_ _069_ VGND VGND VPWR VPWR genblk1\[17\].csa.sc sky130_fd_sc_hd__dfrtp_2
Xclkload5 clknet_3_7__leaf_clk VGND VGND VPWR VPWR clkload5/X sky130_fd_sc_hd__clkbuf_4
XFILLER_0_21_49 VGND VGND VPWR VPWR sky130_fd_sc_hd__fill_1
XFILLER_0_21_16 VGND VGND VPWR VPWR sky130_fd_sc_hd__decap_3
X_303_ y x[21] _163_ _161_ VGND VGND VPWR VPWR _013_ sky130_fd_sc_hd__a31o_2
X_234_ _120_ _121_ VGND VGND VPWR VPWR genblk1\[7\].csa.hsum2 sky130_fd_sc_hd__xnor2_2
XFILLER_0_23_181 VGND VGND VPWR VPWR sky130_fd_sc_hd__fill_1
XFILLER_0_15_148 VGND VGND VPWR VPWR sky130_fd_sc_hd__decap_6
XTAP_TAPCELL_ROW_10_96 VGND VPWR sky130_fd_sc_hd__tapvpwrvgnd_1
XTAP_TAPCELL_ROW_29_154 VGND VPWR sky130_fd_sc_hd__tapvpwrvgnd_1
X_217_ genblk1\[4\].csa.sc genblk1\[4\].csa.y VGND VGND VPWR VPWR _112_ sky130_fd_sc_hd__xor2_2
XFILLER_0_27_15 VGND VGND VPWR VPWR sky130_fd_sc_hd__decap_8
XFILLER_0_4_126 VGND VGND VPWR VPWR sky130_fd_sc_hd__fill_1
XFILLER_0_3_181 VGND VGND VPWR VPWR sky130_fd_sc_hd__fill_1
XPHY_EDGE_ROW_5_Right_5 VGND VGND VPWR VPWR sky130_fd_sc_hd__decap_3
XTAP_TAPCELL_ROW_3_76 VGND VPWR sky130_fd_sc_hd__tapvpwrvgnd_1
X_396_ rst VGND VGND VPWR VPWR _080_ sky130_fd_sc_hd__inv_2
X_465_ clknet_3_3__leaf_clk _017_ _085_ VGND VGND VPWR VPWR genblk1\[25\].csa.sc sky130_fd_sc_hd__dfrtp_2
XFILLER_0_4_15 VPWR VGND VPWR VGND sky130_ef_sc_hd__decap_12
X_250_ genblk1\[11\].csa.sc genblk1\[11\].csa.y VGND VGND VPWR VPWR _131_ sky130_fd_sc_hd__and2_2
XFILLER_0_27_146 VPWR VGND VPWR VGND sky130_ef_sc_hd__decap_12
X_379_ rst VGND VGND VPWR VPWR _063_ sky130_fd_sc_hd__inv_2
X_448_ clknet_3_5__leaf_clk genblk1\[16\].csa.hsum2 _068_ VGND VGND VPWR VPWR genblk1\[15\].csa.y
+ sky130_fd_sc_hd__dfrtp_2
XTAP_TAPCELL_ROW_0_66 VGND VPWR sky130_fd_sc_hd__tapvpwrvgnd_1
X_302_ genblk1\[21\].csa.sc genblk1\[21\].csa.y VGND VGND VPWR VPWR _163_ sky130_fd_sc_hd__xor2_2
X_233_ y x[7] _121_ _119_ VGND VGND VPWR VPWR _028_ sky130_fd_sc_hd__a31o_2
XFILLER_0_23_160 VGND VGND VPWR VPWR sky130_fd_sc_hd__decap_8
XTAP_TAPCELL_ROW_10_97 VGND VPWR sky130_fd_sc_hd__tapvpwrvgnd_1
XFILLER_0_25_9 VGND VGND VPWR VPWR sky130_fd_sc_hd__fill_1
XFILLER_0_22_60 VGND VGND VPWR VPWR sky130_fd_sc_hd__decap_4
XFILLER_0_20_141 VGND VGND VPWR VPWR sky130_fd_sc_hd__decap_8
X_216_ y x[4] VGND VGND VPWR VPWR _111_ sky130_fd_sc_hd__nand2_2
XPHY_EDGE_ROW_20_Right_20 VGND VGND VPWR VPWR sky130_fd_sc_hd__decap_3
XFILLER_0_1_119 VGND VGND VPWR VPWR sky130_fd_sc_hd__fill_2
XPHY_EDGE_ROW_11_Right_11 VGND VGND VPWR VPWR sky130_fd_sc_hd__decap_3
XFILLER_0_28_70 VGND VGND VPWR VPWR sky130_fd_sc_hd__fill_1
XFILLER_0_21_3 VGND VGND VPWR VPWR sky130_fd_sc_hd__decap_8
XFILLER_0_0_141 VGND VGND VPWR VPWR sky130_fd_sc_hd__decap_6
XFILLER_0_8_91 VGND VGND VPWR VPWR sky130_fd_sc_hd__decap_8
X_464_ clknet_3_1__leaf_clk genblk1\[24\].csa.hsum2 _084_ VGND VGND VPWR VPWR genblk1\[23\].csa.y
+ sky130_fd_sc_hd__dfrtp_2
X_395_ rst VGND VGND VPWR VPWR _079_ sky130_fd_sc_hd__inv_2
XFILLER_0_4_27 VGND VGND VPWR VPWR sky130_fd_sc_hd__fill_1
Xclkbuf_3_2__f_clk clknet_0_clk VGND VGND VPWR VPWR clknet_3_2__leaf_clk sky130_fd_sc_hd__clkbuf_16
XFILLER_0_27_169 VPWR VGND VPWR VGND sky130_ef_sc_hd__decap_12
XFILLER_0_27_158 VGND VGND VPWR VPWR sky130_fd_sc_hd__decap_8
X_378_ rst VGND VGND VPWR VPWR _062_ sky130_fd_sc_hd__inv_2
X_447_ clknet_3_4__leaf_clk _007_ _067_ VGND VGND VPWR VPWR genblk1\[16\].csa.sc sky130_fd_sc_hd__dfrtp_2
XTAP_TAPCELL_ROW_0_67 VGND VPWR sky130_fd_sc_hd__tapvpwrvgnd_1
XFILLER_0_25_93 VGND VGND VPWR VPWR sky130_fd_sc_hd__decap_4
X_301_ y x[21] VGND VGND VPWR VPWR _162_ sky130_fd_sc_hd__nand2_2
XFILLER_0_5_70 VGND VGND VPWR VPWR sky130_fd_sc_hd__fill_1
X_232_ genblk1\[7\].csa.sc genblk1\[7\].csa.y VGND VGND VPWR VPWR _121_ sky130_fd_sc_hd__xor2_2
XFILLER_0_11_95 VGND VGND VPWR VPWR sky130_fd_sc_hd__fill_1
XFILLER_0_21_109 VGND VGND VPWR VPWR sky130_fd_sc_hd__decap_3
XPHY_EDGE_ROW_7_Left_38 VGND VGND VPWR VPWR sky130_fd_sc_hd__decap_3
X_215_ genblk1\[4\].csa.sc genblk1\[4\].csa.y VGND VGND VPWR VPWR _110_ sky130_fd_sc_hd__and2_2
XFILLER_0_2_93 VGND VGND VPWR VPWR sky130_fd_sc_hd__decap_3
XFILLER_0_7_125 VGND VGND VPWR VPWR sky130_fd_sc_hd__fill_2
XFILLER_0_7_169 VPWR VGND VPWR VGND sky130_ef_sc_hd__decap_12
XTAP_TAPCELL_ROW_14_107 VGND VPWR sky130_fd_sc_hd__tapvpwrvgnd_1
XFILLER_0_0_131 VGND VGND VPWR VPWR sky130_fd_sc_hd__decap_8
XFILLER_0_14_3 VPWR VGND VPWR VGND sky130_ef_sc_hd__decap_12
XFILLER_0_24_29 VGND VGND VPWR VPWR sky130_fd_sc_hd__fill_2
X_394_ rst VGND VGND VPWR VPWR _078_ sky130_fd_sc_hd__inv_2
X_463_ clknet_3_1__leaf_clk _016_ _083_ VGND VGND VPWR VPWR genblk1\[24\].csa.sc sky130_fd_sc_hd__dfrtp_2
XFILLER_0_30_83 VGND VGND VPWR VPWR sky130_fd_sc_hd__fill_1
XFILLER_0_30_50 VGND VGND VPWR VPWR sky130_fd_sc_hd__decap_6
X_377_ rst VGND VGND VPWR VPWR _061_ sky130_fd_sc_hd__inv_2
X_446_ clknet_3_5__leaf_clk genblk1\[15\].csa.hsum2 _066_ VGND VGND VPWR VPWR genblk1\[14\].csa.y
+ sky130_fd_sc_hd__dfrtp_2
XFILLER_0_3_3 VGND VGND VPWR VPWR sky130_fd_sc_hd__decap_3
XFILLER_0_26_181 VGND VGND VPWR VPWR sky130_fd_sc_hd__fill_1
X_300_ genblk1\[21\].csa.sc genblk1\[21\].csa.y VGND VGND VPWR VPWR _161_ sky130_fd_sc_hd__and2_2
X_231_ y x[7] VGND VGND VPWR VPWR _120_ sky130_fd_sc_hd__nand2_2
XPHY_EDGE_ROW_23_Left_54 VGND VGND VPWR VPWR sky130_fd_sc_hd__decap_3
XFILLER_0_15_107 VGND VGND VPWR VPWR sky130_fd_sc_hd__decap_4
X_429_ clknet_3_3__leaf_clk _028_ _049_ VGND VGND VPWR VPWR genblk1\[7\].csa.sc sky130_fd_sc_hd__dfrtp_2
X_214_ _108_ _109_ VGND VGND VPWR VPWR genblk1\[3\].csa.hsum2 sky130_fd_sc_hd__xnor2_2
XFILLER_0_7_148 VPWR VGND VPWR VGND sky130_ef_sc_hd__decap_12
XFILLER_0_11_154 VGND VGND VPWR VPWR sky130_fd_sc_hd__fill_1
XTAP_TAPCELL_ROW_17_116 VGND VPWR sky130_fd_sc_hd__tapvpwrvgnd_1
XTAP_TAPCELL_ROW_14_108 VGND VPWR sky130_fd_sc_hd__tapvpwrvgnd_1
XPHY_EDGE_ROW_10_Left_41 VGND VGND VPWR VPWR sky130_fd_sc_hd__decap_3
XFILLER_0_0_121 VGND VGND VPWR VPWR sky130_fd_sc_hd__fill_2
XFILLER_0_0_110 VGND VGND VPWR VPWR sky130_fd_sc_hd__fill_2
XPHY_EDGE_ROW_9_Right_9 VGND VGND VPWR VPWR sky130_fd_sc_hd__decap_3
X_393_ rst VGND VGND VPWR VPWR _077_ sky130_fd_sc_hd__inv_2
XFILLER_0_4_29 VGND VGND VPWR VPWR sky130_fd_sc_hd__decap_3
X_462_ clknet_3_1__leaf_clk genblk1\[23\].csa.hsum2 _082_ VGND VGND VPWR VPWR genblk1\[22\].csa.y
+ sky130_fd_sc_hd__dfrtp_2
XFILLER_0_14_63 VGND VGND VPWR VPWR sky130_fd_sc_hd__fill_1
X_376_ rst VGND VGND VPWR VPWR _060_ sky130_fd_sc_hd__inv_2
X_445_ clknet_3_4__leaf_clk _006_ _065_ VGND VGND VPWR VPWR genblk1\[15\].csa.sc sky130_fd_sc_hd__dfrtp_2
X_230_ genblk1\[7\].csa.sc genblk1\[7\].csa.y VGND VGND VPWR VPWR _119_ sky130_fd_sc_hd__and2_2
X_359_ rst VGND VGND VPWR VPWR _043_ sky130_fd_sc_hd__inv_2
X_428_ clknet_3_2__leaf_clk genblk1\[6\].csa.hsum2 _048_ VGND VGND VPWR VPWR genblk1\[5\].csa.y
+ sky130_fd_sc_hd__dfrtp_2
XFILLER_0_11_86 VGND VGND VPWR VPWR sky130_fd_sc_hd__fill_2
XFILLER_0_14_141 VGND VGND VPWR VPWR sky130_fd_sc_hd__decap_6
X_213_ y x[3] _109_ _107_ VGND VGND VPWR VPWR _024_ sky130_fd_sc_hd__a31o_2
XTAP_TAPCELL_ROW_17_117 VGND VPWR sky130_fd_sc_hd__tapvpwrvgnd_1
XFILLER_0_4_108 VGND VGND VPWR VPWR sky130_fd_sc_hd__decap_4
XFILLER_0_7_18 VPWR VGND VPWR VGND sky130_ef_sc_hd__decap_12
XTAP_TAPCELL_ROW_22_131 VGND VPWR sky130_fd_sc_hd__tapvpwrvgnd_1
XTAP_TAPCELL_ROW_14_109 VGND VPWR sky130_fd_sc_hd__tapvpwrvgnd_1
XFILLER_0_3_152 VPWR VGND VPWR VGND sky130_ef_sc_hd__decap_12
X_392_ rst VGND VGND VPWR VPWR _076_ sky130_fd_sc_hd__inv_2
X_461_ clknet_3_1__leaf_clk _015_ _081_ VGND VGND VPWR VPWR genblk1\[23\].csa.sc sky130_fd_sc_hd__dfrtp_2
XFILLER_0_30_85 VPWR VGND VPWR VGND sky130_ef_sc_hd__decap_12
XFILLER_0_14_75 VGND VGND VPWR VPWR sky130_fd_sc_hd__decap_3
X_375_ rst VGND VGND VPWR VPWR _059_ sky130_fd_sc_hd__inv_2
XFILLER_0_25_63 VPWR VGND VPWR VGND sky130_ef_sc_hd__decap_12
X_444_ clknet_3_5__leaf_clk genblk1\[14\].csa.hsum2 _064_ VGND VGND VPWR VPWR genblk1\[13\].csa.y
+ sky130_fd_sc_hd__dfrtp_2
XFILLER_0_24_109 VGND VGND VPWR VPWR sky130_fd_sc_hd__decap_3
X_358_ rst VGND VGND VPWR VPWR _042_ sky130_fd_sc_hd__inv_2
X_427_ clknet_3_2__leaf_clk _027_ _047_ VGND VGND VPWR VPWR genblk1\[6\].csa.sc sky130_fd_sc_hd__dfrtp_2
XPHY_EDGE_ROW_27_Right_27 VGND VGND VPWR VPWR sky130_fd_sc_hd__decap_3
X_289_ _153_ _154_ VGND VGND VPWR VPWR genblk1\[18\].csa.hsum2 sky130_fd_sc_hd__xnor2_2
XPHY_EDGE_ROW_18_Right_18 VGND VGND VPWR VPWR sky130_fd_sc_hd__decap_3
XFILLER_0_14_131 VGND VGND VPWR VPWR sky130_fd_sc_hd__decap_8
X_212_ genblk1\[3\].csa.sc genblk1\[3\].csa.y VGND VGND VPWR VPWR _109_ sky130_fd_sc_hd__xor2_2
XFILLER_0_22_20 VGND VGND VPWR VPWR sky130_fd_sc_hd__fill_1
XFILLER_0_20_156 VGND VGND VPWR VPWR sky130_fd_sc_hd__fill_1
XFILLER_0_7_106 VGND VGND VPWR VPWR sky130_fd_sc_hd__decap_6
XFILLER_0_11_134 VPWR VGND VPWR VGND sky130_ef_sc_hd__decap_12
XFILLER_0_2_52 VGND VGND VPWR VPWR sky130_fd_sc_hd__decap_3
XTAP_TAPCELL_ROW_25_140 VGND VPWR sky130_fd_sc_hd__tapvpwrvgnd_1
XTAP_TAPCELL_ROW_17_118 VGND VPWR sky130_fd_sc_hd__tapvpwrvgnd_1
XFILLER_0_17_53 VGND VGND VPWR VPWR sky130_fd_sc_hd__decap_3
XFILLER_0_17_75 VGND VGND VPWR VPWR sky130_fd_sc_hd__fill_1
XFILLER_0_3_164 VGND VGND VPWR VPWR sky130_fd_sc_hd__decap_4
XTAP_TAPCELL_ROW_22_132 VGND VPWR sky130_fd_sc_hd__tapvpwrvgnd_1
XPHY_EDGE_ROW_0_Right_0 VGND VGND VPWR VPWR sky130_fd_sc_hd__decap_3
X_460_ clknet_3_4__leaf_clk genblk1\[22\].csa.hsum2 _080_ VGND VGND VPWR VPWR genblk1\[21\].csa.y
+ sky130_fd_sc_hd__dfrtp_2
X_391_ rst VGND VGND VPWR VPWR _075_ sky130_fd_sc_hd__inv_2
XFILLER_0_30_97 VGND VGND VPWR VPWR sky130_fd_sc_hd__decap_4
XFILLER_0_30_75 VGND VGND VPWR VPWR sky130_fd_sc_hd__fill_1
XFILLER_0_14_98 VGND VGND VPWR VPWR sky130_fd_sc_hd__decap_6
XFILLER_0_14_32 VGND VGND VPWR VPWR sky130_fd_sc_hd__decap_4
XFILLER_0_29_181 VGND VGND VPWR VPWR sky130_fd_sc_hd__fill_1
XFILLER_0_12_3 VGND VGND VPWR VPWR sky130_fd_sc_hd__decap_4
X_374_ rst VGND VGND VPWR VPWR _058_ sky130_fd_sc_hd__inv_2
X_443_ clknet_3_5__leaf_clk _005_ _063_ VGND VGND VPWR VPWR genblk1\[14\].csa.sc sky130_fd_sc_hd__dfrtp_2
XFILLER_0_25_97 VGND VGND VPWR VPWR sky130_fd_sc_hd__fill_1
XFILLER_0_25_75 VGND VGND VPWR VPWR sky130_fd_sc_hd__decap_4
XFILLER_0_1_3 VGND VGND VPWR VPWR sky130_fd_sc_hd__decap_6
X_288_ y x[18] _154_ _152_ VGND VGND VPWR VPWR _009_ sky130_fd_sc_hd__a31o_2
X_426_ clknet_3_2__leaf_clk genblk1\[5\].csa.hsum2 _046_ VGND VGND VPWR VPWR genblk1\[4\].csa.y
+ sky130_fd_sc_hd__dfrtp_2