*SPEF "ieee 1481-1999"
*DESIGN "spm"
*DATE "19:27:37 Friday March 28, 2025"
*VENDOR "The OpenROAD Project"
*PROGRAM "OpenROAD"
*VERSION "b16bda7e82721d10566ff7e2b68f1ff0be9f9e38"
*DESIGN_FLOW "NAME_SCOPE LOCAL" "PIN_CAP NONE"
*DIVIDER /
*DELIMITER :
*BUS_DELIMITER []
*T_UNIT 1 NS
*C_UNIT 1 PF
*R_UNIT 1 OHM
*L_UNIT 1 HENRY

*NAME_MAP
*3 clk
*4 p
*5 rst
*6 x[0]
*7 x[10]
*8 x[11]
*9 x[12]
*10 x[13]
*11 x[14]
*12 x[15]
*13 x[16]
*14 x[17]
*15 x[18]
*16 x[19]
*17 x[1]
*18 x[20]
*19 x[21]
*20 x[22]
*21 x[23]
*22 x[24]
*23 x[25]
*24 x[26]
*25 x[27]
*26 x[28]
*27 x[29]
*28 x[2]
*29 x[30]
*30 x[31]
*31 x[3]
*32 x[4]
*33 x[5]
*34 x[6]
*35 x[7]
*36 x[8]
*37 x[9]
*38 y
*39 _000_
*40 _001_
*41 _002_
*42 _003_
*43 _004_
*44 _005_
*45 _006_
*46 _007_
*47 _008_
*48 _009_
*49 _010_
*50 _011_
*51 _012_
*52 _013_
*53 _014_
*54 _015_
*55 _016_
*56 _017_
*57 _018_
*58 _019_
*59 _020_
*60 _021_
*61 _022_
*62 _023_
*63 _024_
*64 _025_
*65 _026_
*66 _027_
*67 _028_
*68 _029_
*69 _030_
*70 _031_
*71 _032_
*72 _033_
*73 _034_
*74 _035_
*75 _036_
*76 _037_
*77 _038_
*78 _039_
*79 _040_
*80 _041_
*81 _042_
*82 _043_
*83 _044_
*84 _045_
*85 _046_
*86 _047_
*87 _048_
*88 _049_
*89 _050_
*90 _051_
*91 _052_
*92 _053_
*93 _054_
*94 _055_
*95 _056_
*96 _057_
*97 _058_
*98 _059_
*99 _060_
*100 _061_
*101 _062_
*102 _063_
*103 _064_
*104 _065_
*105 _066_
*106 _067_
*107 _068_
*108 _069_
*109 _070_
*110 _071_
*111 _072_
*112 _073_
*113 _074_
*114 _075_
*115 _076_
*116 _077_
*117 _078_
*118 _079_
*119 _080_
*120 _081_
*121 _082_
*122 _083_
*123 _084_
*124 _085_
*125 _086_
*126 _087_
*127 _088_
*128 _089_
*129 _090_
*130 _091_
*131 _092_
*132 _093_
*133 _094_
*134 _095_
*135 _096_
*136 _097_
*137 _098_
*138 _099_
*139 _100_
*140 _101_
*141 _102_
*142 _103_
*143 _104_
*144 _105_
*145 _106_
*146 _107_
*147 _108_
*148 _109_
*149 _110_
*150 _111_
*151 _112_
*152 _113_
*153 _114_
*154 _115_
*155 _116_
*156 _117_
*157 _118_
*158 _119_
*159 _120_
*160 _121_
*161 _122_
*162 _123_
*163 _124_
*164 _125_
*165 _126_
*166 _127_
*167 _128_
*168 _129_
*169 _130_
*170 _131_
*171 _132_
*172 _133_
*173 _134_
*174 _135_
*175 _136_
*176 _137_
*177 _138_
*178 _139_
*179 _140_
*180 _141_
*181 _142_
*182 _143_
*183 _144_
*184 _145_
*185 _146_
*186 _147_
*187 _148_
*188 _149_
*189 _150_
*190 _151_
*191 _152_
*192 _153_
*193 _154_
*194 _155_
*195 _156_
*196 _157_
*197 _158_
*198 _159_
*199 _160_
*200 _161_
*201 _162_
*202 _163_
*203 _164_
*204 _165_
*205 _166_
*206 _167_
*207 _168_
*208 _169_
*209 _170_
*210 _171_
*211 _172_
*212 _173_
*213 _174_
*214 _175_
*215 _176_
*216 _177_
*217 _178_
*218 _179_
*219 _180_
*220 _181_
*221 _182_
*222 _183_
*223 _184_
*224 _185_
*225 _186_
*226 _187_
*227 _188_
*228 _189_
*229 _190_
*230 clknet_0_clk
*231 clknet_3_0__leaf_clk
*232 clknet_3_1__leaf_clk
*233 clknet_3_2__leaf_clk
*234 clknet_3_3__leaf_clk
*235 clknet_3_4__leaf_clk
*236 clknet_3_5__leaf_clk
*237 clknet_3_6__leaf_clk
*238 clknet_3_7__leaf_clk
*239 csa0\.hsum2
*240 csa0\.sc
*241 csa0\.y
*242 genblk1\[10\]\.csa\.hsum2
*243 genblk1\[10\]\.csa\.sc
*244 genblk1\[10\]\.csa\.sum
*245 genblk1\[10\]\.csa\.y
*246 genblk1\[11\]\.csa\.hsum2
*247 genblk1\[11\]\.csa\.sc
*248 genblk1\[11\]\.csa\.y
*249 genblk1\[12\]\.csa\.hsum2
*250 genblk1\[12\]\.csa\.sc
*251 genblk1\[12\]\.csa\.y
*252 genblk1\[13\]\.csa\.hsum2
*253 genblk1\[13\]\.csa\.sc
*254 genblk1\[13\]\.csa\.y
*255 genblk1\[14\]\.csa\.hsum2
*256 genblk1\[14\]\.csa\.sc
*257 genblk1\[14\]\.csa\.y
*258 genblk1\[15\]\.csa\.hsum2
*259 genblk1\[15\]\.csa\.sc
*260 genblk1\[15\]\.csa\.y
*261 genblk1\[16\]\.csa\.hsum2
*262 genblk1\[16\]\.csa\.sc
*263 genblk1\[16\]\.csa\.y
*264 genblk1\[17\]\.csa\.hsum2
*265 genblk1\[17\]\.csa\.sc
*266 genblk1\[17\]\.csa\.y
*267 genblk1\[18\]\.csa\.hsum2
*268 genblk1\[18\]\.csa\.sc
*269 genblk1\[18\]\.csa\.y
*270 genblk1\[19\]\.csa\.hsum2
*271 genblk1\[19\]\.csa\.sc
*272 genblk1\[19\]\.csa\.y
*273 genblk1\[1\]\.csa\.hsum2
*274 genblk1\[1\]\.csa\.sc
*275 genblk1\[1\]\.csa\.y
*276 genblk1\[20\]\.csa\.hsum2
*277 genblk1\[20\]\.csa\.sc
*278 genblk1\[20\]\.csa\.y
*279 genblk1\[21\]\.csa\.hsum2
*280 genblk1\[21\]\.csa\.sc
*281 genblk1\[21\]\.csa\.y
*282 genblk1\[22\]\.csa\.hsum2
*283 genblk1\[22\]\.csa\.sc
*284 genblk1\[22\]\.csa\.y
*285 genblk1\[23\]\.csa\.hsum2
*286 genblk1\[23\]\.csa\.sc
*287 genblk1\[23\]\.csa\.y
*288 genblk1\[24\]\.csa\.hsum2
*289 genblk1\[24\]\.csa\.sc
*290 genblk1\[24\]\.csa\.y
*291 genblk1\[25\]\.csa\.hsum2
*292 genblk1\[25\]\.csa\.sc
*293 genblk1\[25\]\.csa\.y
*294 genblk1\[26\]\.csa\.hsum2
*295 genblk1\[26\]\.csa\.sc
*296 genblk1\[26\]\.csa\.y
*297 genblk1\[27\]\.csa\.hsum2
*298 genblk1\[27\]\.csa\.sc
*299 genblk1\[27\]\.csa\.y
*300 genblk1\[28\]\.csa\.hsum2
*301 genblk1\[28\]\.csa\.sc
*302 genblk1\[28\]\.csa\.y
*303 genblk1\[29\]\.csa\.hsum2
*304 genblk1\[29\]\.csa\.sc
*305 genblk1\[29\]\.csa\.y
*306 genblk1\[2\]\.csa\.hsum2
*307 genblk1\[2\]\.csa\.sc
*308 genblk1\[2\]\.csa\.y
*309 genblk1\[30\]\.csa\.hsum2
*310 genblk1\[30\]\.csa\.sc
*311 genblk1\[30\]\.csa\.y
*312 genblk1\[3\]\.csa\.hsum2
*313 genblk1\[3\]\.csa\.sc
*314 genblk1\[3\]\.csa\.y
*315 genblk1\[4\]\.csa\.hsum2
*316 genblk1\[4\]\.csa\.sc
*317 genblk1\[4\]\.csa\.y
*318 genblk1\[5\]\.csa\.hsum2
*319 genblk1\[5\]\.csa\.sc
*320 genblk1\[5\]\.csa\.y
*321 genblk1\[6\]\.csa\.hsum2
*322 genblk1\[6\]\.csa\.sc
*323 genblk1\[6\]\.csa\.y
*324 genblk1\[7\]\.csa\.hsum2
*325 genblk1\[7\]\.csa\.sc
*326 genblk1\[7\]\.csa\.y
*327 genblk1\[8\]\.csa\.hsum2
*328 genblk1\[8\]\.csa\.sc
*329 genblk1\[8\]\.csa\.y
*330 genblk1\[9\]\.csa\.hsum2
*331 genblk1\[9\]\.csa\.sc
*332 tcmp\.z
*333 FILLER_0_0_110
*334 FILLER_0_0_113
*335 FILLER_0_0_121
*336 FILLER_0_0_131
*337 FILLER_0_0_139
*338 FILLER_0_0_141
*339 FILLER_0_0_16
*340 FILLER_0_0_160
*341 FILLER_0_0_169
*342 FILLER_0_0_181
*343 FILLER_0_0_27
*344 FILLER_0_0_29
*345 FILLER_0_0_3
*346 FILLER_0_0_41
*347 FILLER_0_0_53
*348 FILLER_0_0_62
*349 FILLER_0_0_69
*350 FILLER_0_0_7
*351 FILLER_0_0_76
*352 FILLER_0_0_98
*353 FILLER_0_10_109
*354 FILLER_0_10_117
*355 FILLER_0_10_122
*356 FILLER_0_10_129
*357 FILLER_0_10_137
*358 FILLER_0_10_162
*359 FILLER_0_10_170
*360 FILLER_0_10_178
*361 FILLER_0_10_24
*362 FILLER_0_10_57
*363 FILLER_0_10_69
*364 FILLER_0_10_85
*365 FILLER_0_10_97
*366 FILLER_0_11_109
*367 FILLER_0_11_113
*368 FILLER_0_11_134
*369 FILLER_0_11_146
*370 FILLER_0_11_154
*371 FILLER_0_11_158
*372 FILLER_0_11_24
*373 FILLER_0_11_3
*374 FILLER_0_11_55
*375 FILLER_0_11_70
*376 FILLER_0_11_86
*377 FILLER_0_11_95
*378 FILLER_0_12_106
*379 FILLER_0_12_12
*380 FILLER_0_12_132
*381 FILLER_0_12_141
*382 FILLER_0_12_179
*383 FILLER_0_12_20
*384 FILLER_0_12_29
*385 FILLER_0_12_3
*386 FILLER_0_12_35
*387 FILLER_0_12_59
*388 FILLER_0_12_82
*389 FILLER_0_13_105
*390 FILLER_0_13_111
*391 FILLER_0_13_113
*392 FILLER_0_13_119
*393 FILLER_0_13_131
*394 FILLER_0_13_143
*395 FILLER_0_13_155
*396 FILLER_0_13_159
*397 FILLER_0_13_167
*398 FILLER_0_13_176
*399 FILLER_0_13_3
*400 FILLER_0_13_40
*401 FILLER_0_13_52
*402 FILLER_0_13_63
*403 FILLER_0_13_71
*404 FILLER_0_13_82
*405 FILLER_0_13_90
*406 FILLER_0_13_94
*407 FILLER_0_13_98
*408 FILLER_0_14_131
*409 FILLER_0_14_139
*410 FILLER_0_14_141
*411 FILLER_0_14_15
*412 FILLER_0_14_168
*413 FILLER_0_14_179
*414 FILLER_0_14_27
*415 FILLER_0_14_3
*416 FILLER_0_14_32
*417 FILLER_0_14_36
*418 FILLER_0_14_55
*419 FILLER_0_14_63
*420 FILLER_0_14_67
*421 FILLER_0_14_75
*422 FILLER_0_14_98
*423 FILLER_0_15_103
*424 FILLER_0_15_107
*425 FILLER_0_15_111
*426 FILLER_0_15_113
*427 FILLER_0_15_136
*428 FILLER_0_15_148
*429 FILLER_0_15_154
*430 FILLER_0_15_158
*431 FILLER_0_15_166
*432 FILLER_0_15_27
*433 FILLER_0_15_3
*434 FILLER_0_15_35
*435 FILLER_0_15_78
*436 FILLER_0_15_82
*437 FILLER_0_16_114
*438 FILLER_0_16_134
*439 FILLER_0_16_141
*440 FILLER_0_16_179
*441 FILLER_0_16_24
*442 FILLER_0_16_50
*443 FILLER_0_16_83
*444 FILLER_0_16_92
*445 FILLER_0_17_101
*446 FILLER_0_17_109
*447 FILLER_0_17_126
*448 FILLER_0_17_13
*449 FILLER_0_17_153
*450 FILLER_0_17_165
*451 FILLER_0_17_23
*452 FILLER_0_17_3
*453 FILLER_0_17_35
*454 FILLER_0_17_47
*455 FILLER_0_17_53
*456 FILLER_0_17_57
*457 FILLER_0_17_69
*458 FILLER_0_17_75
*459 FILLER_0_17_89
*460 FILLER_0_17_9
*461 FILLER_0_18_130
*462 FILLER_0_18_141
*463 FILLER_0_18_160
*464 FILLER_0_18_172
*465 FILLER_0_18_180
*466 FILLER_0_18_21
*467 FILLER_0_18_27
*468 FILLER_0_18_32
*469 FILLER_0_18_71
*470 FILLER_0_18_75
*471 FILLER_0_18_83
*472 FILLER_0_18_85
*473 FILLER_0_18_92
*474 FILLER_0_18_99
*475 FILLER_0_19_11
*476 FILLER_0_19_146
*477 FILLER_0_19_169
*478 FILLER_0_19_181
*479 FILLER_0_19_3
*480 FILLER_0_1_119
*481 FILLER_0_1_134
*482 FILLER_0_1_163
*483 FILLER_0_1_167
*484 FILLER_0_1_169
*485 FILLER_0_1_181
*486 FILLER_0_1_3
*487 FILLER_0_1_55
*488 FILLER_0_1_9
*489 FILLER_0_20_104
*490 FILLER_0_20_139
*491 FILLER_0_20_141
*492 FILLER_0_20_149
*493 FILLER_0_20_156
*494 FILLER_0_20_160
*495 FILLER_0_20_172
*496 FILLER_0_20_180
*497 FILLER_0_20_24
*498 FILLER_0_20_29
*499 FILLER_0_20_62
*500 FILLER_0_20_74
*501 FILLER_0_20_82
*502 FILLER_0_20_92
*503 FILLER_0_21_101
*504 FILLER_0_21_109
*505 FILLER_0_21_11
*506 FILLER_0_21_116
*507 FILLER_0_21_128
*508 FILLER_0_21_133
*509 FILLER_0_21_145
*510 FILLER_0_21_16
*511 FILLER_0_21_162
*512 FILLER_0_21_169
*513 FILLER_0_21_181
*514 FILLER_0_21_3
*515 FILLER_0_21_32
*516 FILLER_0_21_49
*517 FILLER_0_21_53
*518 FILLER_0_21_57
*519 FILLER_0_21_71
*520 FILLER_0_21_83
*521 FILLER_0_21_89
*522 FILLER_0_22_131
*523 FILLER_0_22_139
*524 FILLER_0_22_14
*525 FILLER_0_22_168
*526 FILLER_0_22_180
*527 FILLER_0_22_20
*528 FILLER_0_22_27
*529 FILLER_0_22_29
*530 FILLER_0_22_3
*531 FILLER_0_22_37
*532 FILLER_0_22_60
*533 FILLER_0_22_98
*534 FILLER_0_23_108
*535 FILLER_0_23_113
*536 FILLER_0_23_149
*537 FILLER_0_23_160
*538 FILLER_0_23_169
*539 FILLER_0_23_181
*540 FILLER_0_23_22
*541 FILLER_0_23_27
*542 FILLER_0_23_3
*543 FILLER_0_23_39
*544 FILLER_0_23_47
*545 FILLER_0_23_53
*546 FILLER_0_23_57
*547 FILLER_0_24_101
*548 FILLER_0_24_109
*549 FILLER_0_24_132
*550 FILLER_0_24_144
*551 FILLER_0_24_156
*552 FILLER_0_24_168
*553 FILLER_0_24_180
*554 FILLER_0_24_29
*555 FILLER_0_24_3
*556 FILLER_0_24_69
*557 FILLER_0_24_74
*558 FILLER_0_24_82
*559 FILLER_0_24_85
*560 FILLER_0_24_97
*561 FILLER_0_25_101
*562 FILLER_0_25_111
*563 FILLER_0_25_13
*564 FILLER_0_25_133
*565 FILLER_0_25_145
*566 FILLER_0_25_157
*567 FILLER_0_25_165
*568 FILLER_0_25_169
*569 FILLER_0_25_181
*570 FILLER_0_25_3
*571 FILLER_0_25_63
*572 FILLER_0_25_75
*573 FILLER_0_25_79
*574 FILLER_0_25_9
*575 FILLER_0_25_93
*576 FILLER_0_25_97
*577 FILLER_0_26_108
*578 FILLER_0_26_120
*579 FILLER_0_26_127
*580 FILLER_0_26_139
*581 FILLER_0_26_141
*582 FILLER_0_26_153
*583 FILLER_0_26_165
*584 FILLER_0_26_177
*585 FILLER_0_26_181
*586 FILLER_0_26_24
*587 FILLER_0_26_40
*588 FILLER_0_26_64
*589 FILLER_0_26_70
*590 FILLER_0_26_74
*591 FILLER_0_26_82
*592 FILLER_0_26_85
*593 FILLER_0_27_134
*594 FILLER_0_27_146
*595 FILLER_0_27_15
*596 FILLER_0_27_158
*597 FILLER_0_27_166
*598 FILLER_0_27_169
*599 FILLER_0_27_181
*600 FILLER_0_27_23
*601 FILLER_0_27_3
*602 FILLER_0_27_32
*603 FILLER_0_27_40
*604 FILLER_0_27_57
*605 FILLER_0_27_93
*606 FILLER_0_27_99
*607 FILLER_0_28_124
*608 FILLER_0_28_136
*609 FILLER_0_28_141
*610 FILLER_0_28_153
*611 FILLER_0_28_165
*612 FILLER_0_28_177
*613 FILLER_0_28_181
*614 FILLER_0_28_24
*615 FILLER_0_28_42
*616 FILLER_0_28_64
*617 FILLER_0_28_70
*618 FILLER_0_29_111
*619 FILLER_0_29_113
*620 FILLER_0_29_125
*621 FILLER_0_29_137
*622 FILLER_0_29_149
*623 FILLER_0_29_161
*624 FILLER_0_29_167
*625 FILLER_0_29_169
*626 FILLER_0_29_181
*627 FILLER_0_29_20
*628 FILLER_0_29_3
*629 FILLER_0_29_45
*630 FILLER_0_29_60
*631 FILLER_0_29_87
*632 FILLER_0_2_137
*633 FILLER_0_2_151
*634 FILLER_0_2_163
*635 FILLER_0_2_175
*636 FILLER_0_2_181
*637 FILLER_0_2_27
*638 FILLER_0_2_29
*639 FILLER_0_2_52
*640 FILLER_0_2_76
*641 FILLER_0_2_93
*642 FILLER_0_30_104
*643 FILLER_0_30_113
*644 FILLER_0_30_125
*645 FILLER_0_30_137
*646 FILLER_0_30_14
*647 FILLER_0_30_141
*648 FILLER_0_30_153
*649 FILLER_0_30_165
*650 FILLER_0_30_169
*651 FILLER_0_30_181
*652 FILLER_0_30_26
*653 FILLER_0_30_29
*654 FILLER_0_30_3
*655 FILLER_0_30_38
*656 FILLER_0_30_50
*657 FILLER_0_30_57
*658 FILLER_0_30_69
*659 FILLER_0_30_75
*660 FILLER_0_30_79
*661 FILLER_0_30_83
*662 FILLER_0_30_85
*663 FILLER_0_30_97
*664 FILLER_0_3_108
*665 FILLER_0_3_113
*666 FILLER_0_3_125
*667 FILLER_0_3_133
*668 FILLER_0_3_145
*669 FILLER_0_3_152
*670 FILLER_0_3_164
*671 FILLER_0_3_169
*672 FILLER_0_3_181
*673 FILLER_0_3_19
*674 FILLER_0_3_3
*675 FILLER_0_3_31
*676 FILLER_0_3_46
*677 FILLER_0_3_54
*678 FILLER_0_3_57
*679 FILLER_0_3_66
*680 FILLER_0_3_81
*681 FILLER_0_3_93
*682 FILLER_0_4_101
*683 FILLER_0_4_108
*684 FILLER_0_4_112
*685 FILLER_0_4_126
*686 FILLER_0_4_15
*687 FILLER_0_4_162
*688 FILLER_0_4_174
*689 FILLER_0_4_27
*690 FILLER_0_4_29
*691 FILLER_0_4_3
*692 FILLER_0_4_51
*693 FILLER_0_4_78
*694 FILLER_0_4_85
*695 FILLER_0_4_91
*696 FILLER_0_4_97
*697 FILLER_0_5_133
*698 FILLER_0_5_141
*699 FILLER_0_5_150
*700 FILLER_0_5_162
*701 FILLER_0_5_169
*702 FILLER_0_5_181
*703 FILLER_0_5_19
*704 FILLER_0_5_28
*705 FILLER_0_5_3
*706 FILLER_0_5_34
*707 FILLER_0_5_70
*708 FILLER_0_5_76
*709 FILLER_0_5_98
*710 FILLER_0_6_139
*711 FILLER_0_6_141
*712 FILLER_0_6_155
*713 FILLER_0_6_167
*714 FILLER_0_6_179
*715 FILLER_0_6_26
*716 FILLER_0_6_3
*717 FILLER_0_6_42
*718 FILLER_0_6_83
*719 FILLER_0_7_106
*720 FILLER_0_7_119
*721 FILLER_0_7_125
*722 FILLER_0_7_148
*723 FILLER_0_7_160
*724 FILLER_0_7_169
*725 FILLER_0_7_18
*726 FILLER_0_7_181
*727 FILLER_0_7_3
*728 FILLER_0_7_30
*729 FILLER_0_7_52
*730 FILLER_0_7_57
*731 FILLER_0_7_65
*732 FILLER_0_7_71
*733 FILLER_0_7_82
*734 FILLER_0_7_94
*735 FILLER_0_7_98
*736 FILLER_0_8_105
*737 FILLER_0_8_115
*738 FILLER_0_8_134
*739 FILLER_0_8_144
*740 FILLER_0_8_156
*741 FILLER_0_8_168
*742 FILLER_0_8_180
*743 FILLER_0_8_3
*744 FILLER_0_8_32
*745 FILLER_0_8_36
*746 FILLER_0_8_43
*747 FILLER_0_8_78
*748 FILLER_0_8_91
*749 FILLER_0_8_99
*750 FILLER_0_9_13
*751 FILLER_0_9_134
*752 FILLER_0_9_142
*753 FILLER_0_9_146
*754 FILLER_0_9_158
*755 FILLER_0_9_166
*756 FILLER_0_9_169
*757 FILLER_0_9_181
*758 FILLER_0_9_25
*759 FILLER_0_9_3
*760 FILLER_0_9_33
*761 FILLER_0_9_54
*762 FILLER_0_9_73
*763 FILLER_0_9_9
*764 PHY_EDGE_ROW_0_Left_31
*765 PHY_EDGE_ROW_0_Right_0
*766 PHY_EDGE_ROW_10_Left_41
*767 PHY_EDGE_ROW_10_Right_10
*768 PHY_EDGE_ROW_11_Left_42
*769 PHY_EDGE_ROW_11_Right_11
*770 PHY_EDGE_ROW_12_Left_43
*771 PHY_EDGE_ROW_12_Right_12
*772 PHY_EDGE_ROW_13_Left_44
*773 PHY_EDGE_ROW_13_Right_13
*774 PHY_EDGE_ROW_14_Left_45
*775 PHY_EDGE_ROW_14_Right_14
*776 PHY_EDGE_ROW_15_Left_46
*777 PHY_EDGE_ROW_15_Right_15
*778 PHY_EDGE_ROW_16_Left_47
*779 PHY_EDGE_ROW_16_Right_16
*780 PHY_EDGE_ROW_17_Left_48
*781 PHY_EDGE_ROW_17_Right_17
*782 PHY_EDGE_ROW_18_Left_49
*783 PHY_EDGE_ROW_18_Right_18
*784 PHY_EDGE_ROW_19_Left_50
*785 PHY_EDGE_ROW_19_Right_19
*786 PHY_EDGE_ROW_1_Left_32
*787 PHY_EDGE_ROW_1_Right_1
*788 PHY_EDGE_ROW_20_Left_51
*789 PHY_EDGE_ROW_20_Right_20
*790 PHY_EDGE_ROW_21_Left_52
*791 PHY_EDGE_ROW_21_Right_21
*792 PHY_EDGE_ROW_22_Left_53
*793 PHY_EDGE_ROW_22_Right_22
*794 PHY_EDGE_ROW_23_Left_54
*795 PHY_EDGE_ROW_23_Right_23
*796 PHY_EDGE_ROW_24_Left_55
*797 PHY_EDGE_ROW_24_Right_24
*798 PHY_EDGE_ROW_25_Left_56
*799 PHY_EDGE_ROW_25_Right_25
*800 PHY_EDGE_ROW_26_Left_57
*801 PHY_EDGE_ROW_26_Right_26
*802 PHY_EDGE_ROW_27_Left_58
*803 PHY_EDGE_ROW_27_Right_27
*804 PHY_EDGE_ROW_28_Left_59
*805 PHY_EDGE_ROW_28_Right_28
*806 PHY_EDGE_ROW_29_Left_60
*807 PHY_EDGE_ROW_29_Right_29
*808 PHY_EDGE_ROW_2_Left_33
*809 PHY_EDGE_ROW_2_Right_2
*810 PHY_EDGE_ROW_30_Left_61
*811 PHY_EDGE_ROW_30_Right_30
*812 PHY_EDGE_ROW_3_Left_34
*813 PHY_EDGE_ROW_3_Right_3
*814 PHY_EDGE_ROW_4_Left_35
*815 PHY_EDGE_ROW_4_Right_4
*816 PHY_EDGE_ROW_5_Left_36
*817 PHY_EDGE_ROW_5_Right_5
*818 PHY_EDGE_ROW_6_Left_37
*819 PHY_EDGE_ROW_6_Right_6
*820 PHY_EDGE_ROW_7_Left_38
*821 PHY_EDGE_ROW_7_Right_7
*822 PHY_EDGE_ROW_8_Left_39
*823 PHY_EDGE_ROW_8_Right_8
*824 PHY_EDGE_ROW_9_Left_40
*825 PHY_EDGE_ROW_9_Right_9
*826 TAP_TAPCELL_ROW_0_62
*827 TAP_TAPCELL_ROW_0_63
*828 TAP_TAPCELL_ROW_0_64
*829 TAP_TAPCELL_ROW_0_65
*830 TAP_TAPCELL_ROW_0_66
*831 TAP_TAPCELL_ROW_0_67
*832 TAP_TAPCELL_ROW_10_95
*833 TAP_TAPCELL_ROW_10_96
*834 TAP_TAPCELL_ROW_10_97
*835 TAP_TAPCELL_ROW_11_100
*836 TAP_TAPCELL_ROW_11_98
*837 TAP_TAPCELL_ROW_11_99
*838 TAP_TAPCELL_ROW_12_101
*839 TAP_TAPCELL_ROW_12_102
*840 TAP_TAPCELL_ROW_12_103
*841 TAP_TAPCELL_ROW_13_104
*842 TAP_TAPCELL_ROW_13_105
*843 TAP_TAPCELL_ROW_13_106
*844 TAP_TAPCELL_ROW_14_107
*845 TAP_TAPCELL_ROW_14_108
*846 TAP_TAPCELL_ROW_14_109
*847 TAP_TAPCELL_ROW_15_110
*848 TAP_TAPCELL_ROW_15_111
*849 TAP_TAPCELL_ROW_15_112
*850 TAP_TAPCELL_ROW_16_113
*851 TAP_TAPCELL_ROW_16_114
*852 TAP_TAPCELL_ROW_16_115
*853 TAP_TAPCELL_ROW_17_116
*854 TAP_TAPCELL_ROW_17_117
*855 TAP_TAPCELL_ROW_17_118
*856 TAP_TAPCELL_ROW_18_119
*857 TAP_TAPCELL_ROW_18_120
*858 TAP_TAPCELL_ROW_18_121
*859 TAP_TAPCELL_ROW_19_122
*860 TAP_TAPCELL_ROW_19_123
*861 TAP_TAPCELL_ROW_19_124
*862 TAP_TAPCELL_ROW_1_68
*863 TAP_TAPCELL_ROW_1_69
*864 TAP_TAPCELL_ROW_1_70
*865 TAP_TAPCELL_ROW_20_125
*866 TAP_TAPCELL_ROW_20_126
*867 TAP_TAPCELL_ROW_20_127
*868 TAP_TAPCELL_ROW_21_128
*869 TAP_TAPCELL_ROW_21_129
*870 TAP_TAPCELL_ROW_21_130
*871 TAP_TAPCELL_ROW_22_131
*872 TAP_TAPCELL_ROW_22_132
*873 TAP_TAPCELL_ROW_22_133
*874 TAP_TAPCELL_ROW_23_134
*875 TAP_TAPCELL_ROW_23_135
*876 TAP_TAPCELL_ROW_23_136
*877 TAP_TAPCELL_ROW_24_137
*878 TAP_TAPCELL_ROW_24_138
*879 TAP_TAPCELL_ROW_24_139
*880 TAP_TAPCELL_ROW_25_140
*881 TAP_TAPCELL_ROW_25_141
*882 TAP_TAPCELL_ROW_25_142
*883 TAP_TAPCELL_ROW_26_143
*884 TAP_TAPCELL_ROW_26_144
*885 TAP_TAPCELL_ROW_26_145
*886 TAP_TAPCELL_ROW_27_146
*887 TAP_TAPCELL_ROW_27_147
*888 TAP_TAPCELL_ROW_27_148
*889 TAP_TAPCELL_ROW_28_149
*890 TAP_TAPCELL_ROW_28_150
*891 TAP_TAPCELL_ROW_28_151
*892 TAP_TAPCELL_ROW_29_152
*893 TAP_TAPCELL_ROW_29_153
*894 TAP_TAPCELL_ROW_29_154
*895 TAP_TAPCELL_ROW_2_71
*896 TAP_TAPCELL_ROW_2_72
*897 TAP_TAPCELL_ROW_2_73
*898 TAP_TAPCELL_ROW_30_155
*899 TAP_TAPCELL_ROW_30_156
*900 TAP_TAPCELL_ROW_30_157
*901 TAP_TAPCELL_ROW_30_158
*902 TAP_TAPCELL_ROW_30_159
*903 TAP_TAPCELL_ROW_30_160
*904 TAP_TAPCELL_ROW_3_74
*905 TAP_TAPCELL_ROW_3_75
*906 TAP_TAPCELL_ROW_3_76
*907 TAP_TAPCELL_ROW_4_77
*908 TAP_TAPCELL_ROW_4_78
*909 TAP_TAPCELL_ROW_4_79
*910 TAP_TAPCELL_ROW_5_80
*911 TAP_TAPCELL_ROW_5_81
*912 TAP_TAPCELL_ROW_5_82
*913 TAP_TAPCELL_ROW_6_83
*914 TAP_TAPCELL_ROW_6_84
*915 TAP_TAPCELL_ROW_6_85
*916 TAP_TAPCELL_ROW_7_86
*917 TAP_TAPCELL_ROW_7_87
*918 TAP_TAPCELL_ROW_7_88
*919 TAP_TAPCELL_ROW_8_89
*920 TAP_TAPCELL_ROW_8_90
*921 TAP_TAPCELL_ROW_8_91
*922 TAP_TAPCELL_ROW_9_92
*923 TAP_TAPCELL_ROW_9_93
*924 TAP_TAPCELL_ROW_9_94
*925 _191_
*926 _192_
*927 _193_
*928 _194_
*929 _195_
*930 _196_
*931 _197_
*932 _198_
*933 _199_
*934 _200_
*935 _201_
*936 _202_
*937 _203_
*938 _204_
*939 _205_
*940 _206_
*941 _207_
*942 _208_
*943 _209_
*944 _210_
*945 _211_
*946 _212_
*947 _213_
*948 _214_
*949 _215_
*950 _216_
*951 _217_
*952 _218_
*953 _219_
*954 _220_
*955 _221_
*956 _222_
*957 _223_
*958 _224_
*959 _225_
*960 _226_
*961 _227_
*962 _228_
*963 _229_
*964 _230_
*965 _231_
*966 _232_
*967 _233_
*968 _234_
*969 _235_
*970 _236_
*971 _237_
*972 _238_
*973 _239_
*974 _240_
*975 _241_
*976 _242_
*977 _243_
*978 _244_
*979 _245_
*980 _246_
*981 _247_
*982 _248_
*983 _249_
*984 _250_
*985 _251_
*986 _252_
*987 _253_
*988 _254_
*989 _255_
*990 _256_
*991 _257_
*992 _258_
*993 _259_
*994 _260_
*995 _261_
*996 _262_
*997 _263_
*998 _264_
*999 _265_
*1000 _266_
*1001 _267_
*1002 _268_
*1003 _269_
*1004 _270_
*1005 _271_
*1006 _272_
*1007 _273_
*1008 _274_
*1009 _275_
*1010 _276_
*1011 _277_
*1012 _278_
*1013 _279_
*1014 _280_
*1015 _281_
*1016 _282_
*1017 _283_
*1018 _284_
*1019 _285_
*1020 _286_
*1021 _287_
*1022 _288_
*1023 _289_
*1024 _290_
*1025 _291_
*1026 _292_
*1027 _293_
*1028 _294_
*1029 _295_
*1030 _296_
*1031 _297_
*1032 _298_
*1033 _299_
*1034 _300_
*1035 _301_
*1036 _302_
*1037 _303_
*1038 _304_
*1039 _305_
*1040 _306_
*1041 _307_
*1042 _308_
*1043 _309_
*1044 _310_
*1045 _311_
*1046 _312_
*1047 _313_
*1048 _314_
*1049 _315_
*1050 _316_
*1051 _317_
*1052 _318_
*1053 _319_
*1054 _320_
*1055 _321_
*1056 _322_
*1057 _323_
*1058 _324_
*1059 _325_
*1060 _326_
*1061 _327_
*1062 _328_
*1063 _329_
*1064 _330_
*1065 _331_
*1066 _332_
*1067 _333_
*1068 _334_
*1069 _335_
*1070 _336_
*1071 _337_
*1072 _338_
*1073 _339_
*1074 _340_
*1075 _341_
*1076 _342_
*1077 _343_
*1078 _344_
*1079 _345_
*1080 _346_
*1081 _347_
*1082 _348_
*1083 _349_
*1084 _350_
*1085 _351_
*1086 _352_
*1087 _353_
*1088 _354_
*1089 _355_
*1090 _356_
*1091 _357_
*1092 _358_
*1093 _359_
*1094 _360_
*1095 _361_
*1096 _362_
*1097 _363_
*1098 _364_
*1099 _365_
*1100 _366_
*1101 _367_
*1102 _368_
*1103 _369_
*1104 _370_
*1105 _371_
*1106 _372_
*1107 _373_
*1108 _374_
*1109 _375_
*1110 _376_
*1111 _377_
*1112 _378_
*1113 _379_
*1114 _380_
*1115 _381_
*1116 _382_
*1117 _383_
*1118 _384_
*1119 _385_
*1120 _386_
*1121 _387_
*1122 _388_
*1123 _389_
*1124 _390_
*1125 _391_
*1126 _392_
*1127 _393_
*1128 _394_
*1129 _395_
*1130 _396_
*1131 _397_
*1132 _398_
*1133 _399_
*1134 _400_
*1135 _401_
*1136 _402_
*1137 _403_
*1138 _404_
*1139 _405_
*1140 _406_
*1141 _407_
*1142 _408_
*1143 _409_
*1144 _410_
*1145 _411_
*1146 _412_
*1147 _413_
*1148 _414_
*1149 _415_
*1150 _416_
*1151 _417_
*1152 _418_
*1153 _419_
*1154 _420_
*1155 _421_
*1156 _422_
*1157 _423_
*1158 _424_
*1159 _425_
*1160 _426_
*1161 _427_
*1162 _428_
*1163 _429_
*1164 _430_
*1165 _431_
*1166 _432_
*1167 _433_
*1168 _434_
*1169 _435_
*1170 _436_
*1171 _437_
*1172 _438_
*1173 _439_
*1174 _440_
*1175 _441_
*1176 _442_
*1177 _443_
*1178 _444_
*1179 _445_
*1180 _446_
*1181 _447_
*1182 _448_
*1183 _449_
*1184 _450_
*1185 _451_
*1186 _452_
*1187 _453_
*1188 _454_
*1189 _455_
*1190 _456_
*1191 _457_
*1192 _458_
*1193 _459_
*1194 _460_
*1195 _461_
*1196 _462_
*1197 _463_
*1198 _464_
*1199 _465_
*1200 _466_
*1201 _467_
*1202 _468_
*1203 _469_
*1204 _470_
*1205 _471_
*1206 _472_
*1207 _473_
*1208 _474_
*1209 _475_
*1210 _476_
*1211 clkbuf_0_clk
*1212 clkbuf_3_0__f_clk
*1213 clkbuf_3_1__f_clk
*1214 clkbuf_3_2__f_clk
*1215 clkbuf_3_3__f_clk
*1216 clkbuf_3_4__f_clk
*1217 clkbuf_3_5__f_clk
*1218 clkbuf_3_6__f_clk
*1219 clkbuf_3_7__f_clk
*1220 clkload0
*1221 clkload1
*1222 clkload2
*1223 clkload3
*1224 clkload4
*1225 clkload5

*PORTS
clk I
p O
rst I
x[0] I
x[10] I
x[11] I
x[12] I
x[13] I
x[14] I
x[15] I
x[16] I
x[17] I
x[18] I
x[19] I
x[1] I
x[20] I
x[21] I
x[22] I
x[23] I
x[24] I
x[25] I
x[26] I
x[27] I
x[28] I
x[29] I
x[2] I
x[30] I
x[31] I
x[3] I
x[4] I
x[5] I
x[6] I
x[7] I
x[8] I
x[9] I
y I

*D_NET *3 0.0132009
*CONN
*P clk I
*I *1211:A I *D sky130_fd_sc_hd__clkbuf_16
*CAP
1 clk 0.000605739
2 *1211:A 0
3 *3:15 0.00200174
4 *3:9 0.00460272
5 *3:7 0.00320672
6 *3:7 p 0.000215242
7 *3:9 p 0
8 *3:9 *929:A3 8.98624e-05
9 *3:9 *930:B 0.000106436
10 *3:9 *934:A 4.04496e-05
11 *3:9 *934:B 0.000378031
12 *3:9 *936:A 6.54153e-05
13 *3:9 *999:B 0
14 *3:9 *1006:B 0.000195968
15 *3:9 *13:19 0
16 *3:9 *38:353 0
17 *3:9 *38:366 0
18 *3:9 *38:383 0
19 *3:9 *38:391 0
20 *3:9 *38:693 0
21 *3:9 *39:10 0.000373059
22 *3:9 *77:10 0
23 *3:9 *104:10 0
24 *3:9 *105:10 0.000111852
25 *3:9 *181:23 0
26 *3:9 *256:12 6.18486e-05
27 *3:9 *257:10 0
28 *3:9 *259:8 3.98772e-05
29 *3:9 *259:18 0.000221541
30 *3:9 *273:10 0
31 *3:15 *936:B 2.93747e-05
32 *3:15 *1039:A 9.89662e-05
33 *3:15 *1043:A 7.15126e-05
34 *3:15 *1043:B 5.40241e-05
35 *3:15 *1194:D 9.36522e-05
36 *3:15 *18:13 0.000112764
37 *3:15 *203:10 5.56356e-05
38 *3:15 *230:8 0.000368441
*RES
1 clk *3:7 10.6469 
2 *3:7 *3:9 53.8468 
3 *3:9 *3:15 43.275 
4 *3:15 *1211:A 23 
*END

*D_NET *4 0.00381138
*CONN
*P p O
*I *1148:Q O *D sky130_fd_sc_hd__dfrtp_2
*CAP
1 p 0.00110498
2 *1148:Q 0.000468967
3 *4:8 0.00157395
4 p *5:9 8.73702e-05
5 p *6:9 0
6 p *6:15 0
7 p *239:10 6.68378e-05
8 *4:8 *1148:RESET_B 1.90678e-05
9 *4:8 *236:79 0.000274955
10 *3:7 p 0.000215242
11 *3:9 p 0
*RES
1 *1148:Q *4:8 44.815 
2 *4:8 p 23.7484 
*END

*D_NET *5 0.0844543
*CONN
*P rst I
*I *1084:A I *D sky130_fd_sc_hd__inv_2
*I *1116:A I *D sky130_fd_sc_hd__inv_2
*I *1115:A I *D sky130_fd_sc_hd__inv_2
*I *1088:A I *D sky130_fd_sc_hd__inv_2
*I *1121:A I *D sky130_fd_sc_hd__inv_2
*I *1120:A I *D sky130_fd_sc_hd__inv_2
*I *1127:A I *D sky130_fd_sc_hd__inv_2
*I *1130:A I *D sky130_fd_sc_hd__inv_2
*I *1137:A I *D sky130_fd_sc_hd__inv_2
*I *1140:A I *D sky130_fd_sc_hd__inv_2
*I *1125:A I *D sky130_fd_sc_hd__inv_2
*I *1135:A I *D sky130_fd_sc_hd__inv_2
*I *1141:A I *D sky130_fd_sc_hd__inv_2
*I *1136:A I *D sky130_fd_sc_hd__inv_2
*I *1133:A I *D sky130_fd_sc_hd__inv_2
*I *1144:A I *D sky130_fd_sc_hd__inv_2
*I *1092:A I *D sky130_fd_sc_hd__inv_2
*I *1146:A I *D sky130_fd_sc_hd__inv_2
*I *1139:A I *D sky130_fd_sc_hd__inv_2
*I *1093:A I *D sky130_fd_sc_hd__inv_2
*I *1094:A I *D sky130_fd_sc_hd__inv_2
*I *1142:A I *D sky130_fd_sc_hd__inv_2
*I *1091:A I *D sky130_fd_sc_hd__inv_2
*I *1145:A I *D sky130_fd_sc_hd__inv_2
*I *1134:A I *D sky130_fd_sc_hd__inv_2
*I *1143:A I *D sky130_fd_sc_hd__inv_2
*I *1090:A I *D sky130_fd_sc_hd__inv_2
*I *1107:A I *D sky130_fd_sc_hd__inv_2
*I *1104:A I *D sky130_fd_sc_hd__inv_2
*I *1101:A I *D sky130_fd_sc_hd__inv_2
*I *1102:A I *D sky130_fd_sc_hd__inv_2
*I *1128:A I *D sky130_fd_sc_hd__inv_2
*I *1138:A I *D sky130_fd_sc_hd__inv_2
*I *1099:A I *D sky130_fd_sc_hd__inv_2
*I *1097:A I *D sky130_fd_sc_hd__inv_2
*I *1098:A I *D sky130_fd_sc_hd__inv_2
*I *1095:A I *D sky130_fd_sc_hd__inv_2
*I *1096:A I *D sky130_fd_sc_hd__inv_2
*I *1100:A I *D sky130_fd_sc_hd__inv_2
*I *1126:A I *D sky130_fd_sc_hd__inv_2
*I *1103:A I *D sky130_fd_sc_hd__inv_2
*I *1106:A I *D sky130_fd_sc_hd__inv_2
*I *1108:A I *D sky130_fd_sc_hd__inv_2
*I *1122:A I *D sky130_fd_sc_hd__inv_2
*I *1123:A I *D sky130_fd_sc_hd__inv_2
*I *1124:A I *D sky130_fd_sc_hd__inv_2
*I *1105:A I *D sky130_fd_sc_hd__inv_2
*I *1110:A I *D sky130_fd_sc_hd__inv_2
*I *1109:A I *D sky130_fd_sc_hd__inv_2
*I *1111:A I *D sky130_fd_sc_hd__inv_2
*I *925:A I *D sky130_fd_sc_hd__inv_2
*I *1112:A I *D sky130_fd_sc_hd__inv_2
*I *1119:A I *D sky130_fd_sc_hd__inv_2
*I *1114:A I *D sky130_fd_sc_hd__inv_2
*I *1118:A I *D sky130_fd_sc_hd__inv_2
*I *1117:A I *D sky130_fd_sc_hd__inv_2
*I *1129:A I *D sky130_fd_sc_hd__inv_2
*I *1087:A I *D sky130_fd_sc_hd__inv_2
*I *1132:A I *D sky130_fd_sc_hd__inv_2
*I *1131:A I *D sky130_fd_sc_hd__inv_2
*I *1085:A I *D sky130_fd_sc_hd__inv_2
*I *1086:A I *D sky130_fd_sc_hd__inv_2
*I *1089:A I *D sky130_fd_sc_hd__inv_2
*I *1113:A I *D sky130_fd_sc_hd__inv_2
*CAP
1 rst 0.000576813
2 *1084:A 0
3 *1116:A 0.000515365
4 *1115:A 0
5 *1088:A 0
6 *1121:A 0.000401056
7 *1120:A 0
8 *1127:A 0
9 *1130:A 0
10 *1137:A 0
11 *1140:A 0.000467636
12 *1125:A 0
13 *1135:A 0
14 *1141:A 0
15 *1136:A 2.34823e-05
16 *1133:A 0.00023771
17 *1144:A 0.00030815
18 *1092:A 0.000197504
19 *1146:A 0
20 *1139:A 9.03173e-05
21 *1093:A 0.000405766
22 *1094:A 0.000194776
23 *1142:A 0
24 *1091:A 0
25 *1145:A 4.71014e-05
26 *1134:A 0
27 *1143:A 0
28 *1090:A 9.7445e-05
29 *1107:A 0.000114635
30 *1104:A 4.03678e-05
31 *1101:A 0
32 *1102:A 3.2539e-05
33 *1128:A 1.80505e-05
34 *1138:A 0
35 *1099:A 0
36 *1097:A 5.145e-05
37 *1098:A 0
38 *1095:A 2.79004e-05
39 *1096:A 0
40 *1100:A 5.145e-05
41 *1126:A 6.6926e-05
42 *1103:A 4.90489e-05
43 *1106:A 0
44 *1108:A 0
45 *1122:A 0.000144535
46 *1123:A 0.000429089
47 *1124:A 3.78039e-05
48 *1105:A 0
49 *1110:A 0
50 *1109:A 0
51 *1111:A 0
52 *925:A 0.000449617
53 *1112:A 4.24211e-05
54 *1119:A 4.43862e-05
55 *1114:A 6.382e-05
56 *1118:A 4.69071e-05
57 *1117:A 0
58 *1129:A 0
59 *1087:A 0
60 *1132:A 0.000557245
61 *1131:A 4.24211e-05
62 *1085:A 0
63 *1086:A 0
64 *1089:A 0
65 *1113:A 0
66 *5:755 0.000607546
67 *5:742 0.000414634
68 *5:715 0.00100356
69 *5:704 0.00120947
70 *5:686 0.000611717
71 *5:678 0.00164247
72 *5:665 0.000774713
73 *5:594 0.000749302
74 *5:590 0.000336591
75 *5:583 0.00122613
76 *5:575 0.00112862
77 *5:568 0.000482416
78 *5:551 0.000922157
79 *5:547 0.000794424
80 *5:526 0.000167337
81 *5:524 0.000617743
82 *5:514 0.00119536
83 *5:512 0.000773961
84 *5:506 0.000846827
85 *5:504 0.000670841
86 *5:502 0.000758299
87 *5:500 0.000530728
88 *5:496 0.000864124
89 *5:453 0.00135526
90 *5:440 0.0022744
91 *5:399 0.000647562
92 *5:393 0.000852445
93 *5:389 0.000945365
94 *5:383 0.000941026
95 *5:372 0.000743419
96 *5:366 0.000668239
97 *5:364 0.0012397
98 *5:362 0.000519976
99 *5:360 0.000570604
100 *5:349 0.000721791
101 *5:343 0.000774536
102 *5:330 0.000956799
103 *5:319 0.00138843
104 *5:304 0.0014719
105 *5:275 0.000857391
106 *5:262 0.000667226
107 *5:254 0.000598245
108 *5:252 0.000985015
109 *5:243 0.000961722
110 *5:235 0.00137273
111 *5:228 0.000880297
112 *5:206 0.000695979
113 *5:202 0.00110642
114 *5:187 0.000723321
115 *5:176 0.00102428
116 *5:161 0.00110581
117 *5:148 0.000949206
118 *5:144 0.000949213
119 *5:137 0.000218695
120 *5:130 0.000668034
121 *5:120 0.00116776
122 *5:77 0.000256712
123 *5:71 0.000937598
124 *5:56 0.00127856
125 *5:46 0.00127075
126 *5:44 0.00154049
127 *5:38 0.000404846
128 *5:36 0.00119737
129 *5:30 0.000757854
130 *5:26 0.00123196
131 *5:15 0.00109133
132 *5:9 0.00121761
133 *925:A *997:A3 5.58003e-05
134 *925:A *10:32 1.21972e-05
135 *925:A *38:410 9.53319e-05
136 *1090:A *60:10 0.000144501
137 *1090:A *232:27 9.72406e-05
138 *1090:A *232:33 7.9937e-05
139 *1092:A *226:16 0.00012959
140 *1093:A *82:12 4.82056e-05
141 *1094:A *151:14 0
142 *1095:A *957:B1 5.50106e-05
143 *1102:A *67:6 2.93845e-05
144 *1103:A *38:570 6.17437e-06
145 *1104:A *37:19 9.84794e-05
146 *1104:A *38:570 5.37348e-06
147 *1107:A *96:10 6.17437e-06
148 *1116:A *1008:A 0.000128401
149 *1116:A *105:10 1.05502e-05
150 *1118:A *261:10 5.41288e-05
151 *1119:A *108:10 6.17437e-06
152 *1121:A *16:7 0.000104089
153 *1123:A *112:10 1.94693e-05
154 *1126:A *68:10 7.9566e-05
155 *1128:A *117:10 2.93747e-05
156 *1128:A *230:66 5.50049e-05
157 *1133:A *1051:A 5.50049e-05
158 *1133:A *211:8 0.000219779
159 *1136:A *1055:A 0